# WEL package for  MODFLOW-2005, generated by Flopy.
        93        40  AUX IFACE AUX QFACT AUX CELLGRP
        93         0 # stress period 1
         1       163       193             0.0             0.0             1.0             1.0
         1       151       190             0.0             0.0             1.0             2.0
         1       148       199             0.0             0.0             1.0             3.0
         1       138       199             0.0             0.0             1.0             4.0
         1       159       192             0.0             0.0             1.0             5.0
         1       156       196             0.0             0.0             1.0             6.0
         1       152       197             0.0             0.0             1.0             7.0
         1       144       197             0.0             0.0             1.0             8.0
         1       131       199             0.0             0.0             1.0             9.0
         1       123       202             0.0             0.0             1.0            10.0
         1       116       204             0.0             0.0             1.0            11.0
         1       108       206             0.0             0.0             1.0            12.0
         1       100       208             0.0             0.0             1.0            13.0
         1        92       210             0.0             0.0             1.0            14.0
         1        84       210             0.0             0.0             1.0            15.0
         1        77       211             0.0             0.0             1.0            16.0
         1        72       212             0.0             0.0             1.0            17.0
         1        67       213             0.0             0.0             1.0            18.0
         1        63       208             0.0             0.0             1.0            19.0
         1        59       214             0.0             0.0             1.0            20.0
         1        52       213             0.0             0.0             1.0            21.0
         1        44       213             0.0             0.0             1.0            22.0
         1       124       196             0.0             0.0             1.0            23.0
         1       112       203             0.0             0.0             1.0            24.0
         1        97       204             0.0             0.0             1.0            25.0
         1       170       197             0.0             0.0             1.0            26.0
         1       176       196             0.0             0.0             1.0            27.0
         1       143       201             0.0             0.0             1.0            28.0
         1       135       201             0.0             0.0             1.0            29.0
         1       127       201             0.0             0.0             1.0            30.0
         1       105       207             0.0             0.0             1.0            31.0
         1        94       208             0.0             0.0             1.0            32.0
         1        88       208             0.0             0.0             1.0            33.0
         1        81       213             0.0             0.0             1.0            34.0
         1        68       208             0.0             0.0             1.0            35.0
         1        61       216             0.0             0.0             1.0            36.0
         1        55       210             0.0             0.0             1.0            37.0
         1        47       216             0.0             0.0             1.0            38.0
         1        39       213             0.0             0.0             1.0            39.0
         1        38       218             0.0             0.0             1.0            40.0
         1        80       208             0.0             0.0             1.0            41.0
         1       118       201             0.0             0.0             1.0            42.0
         1       134       197             0.0             0.0             1.0            43.0
         1       158       200             0.0             0.0             1.0            44.0
         1       165       198             0.0             0.0             1.0            45.0
         1       169       194             0.0             0.0             1.0            46.0
         1       181       197             0.0             0.0             1.0            47.0
         1       174       193             0.0             0.0             1.0            48.0
         1        65       217             0.0             0.0             1.0            49.0
         1        61       211             0.0             0.0             1.0            50.0
         1        56       215             0.0             0.0             1.0            51.0
         1        39       216             0.0             0.0             1.0            52.0
         1        32       218             0.0             0.0             1.0            53.0
         1        73       208             0.0             0.0             1.0            54.0
         1        76       213             0.0             0.0             1.0            55.0
         1        83       206             0.0             0.0             1.0            56.0
         1        88       211             0.0             0.0             1.0            57.0
         1        48       212             0.0             0.0             1.0            58.0
         1       103       205             0.0             0.0             1.0            59.0
         1        91       205             0.0             0.0             1.0            60.0
         1       106       202             0.0             0.0             1.0            61.0
         1       114       206             0.0             0.0             1.0            62.0
         1       116       198             0.0             0.0             1.0            63.0
         1       127       198             0.0             0.0             1.0            64.0
         1       131       203             0.0             0.0             1.0            65.0
         1       138       195             0.0             0.0             1.0            66.0
         1       152       200             0.0             0.0             1.0            67.0
         1       145       193             0.0             0.0             1.0            68.0
         1       130       195             0.0             0.0             1.0            69.0
         1       162       197             0.0             0.0             1.0            70.0
         1       166       190             0.0             0.0             1.0            71.0
         1        86       204             0.0             0.0             1.0            72.0
         1       173       198             0.0             0.0             1.0            73.0
         1       170       190             0.0             0.0             1.0            74.0
         1       180       193             0.0             0.0             1.0            75.0
         1       149       194             0.0             0.0             1.0            76.0
         1        35       218             0.0             0.0             1.0            77.0
         1        34       215             0.0             0.0             1.0            78.0
         1        43       215             0.0             0.0             1.0            79.0
         1        52       217             0.0             0.0             1.0            80.0
         1        59       217             0.0             0.0             1.0            81.0
         1        57       211             0.0             0.0             1.0            82.0
         1        63       213             0.0             0.0             1.0            83.0
         1        42       211             0.0             0.0             1.0            84.0
         1        35       214             0.0             0.0             1.0            85.0
         1        51       211             0.0             0.0             1.0            86.0
         1        46       209             0.0             0.0             1.0            87.0
         1        65       211             0.0             0.0             1.0            88.0
         1        54       213             0.0             0.0             1.0            89.0
         1        53       208             0.0             0.0             1.0            90.0
         1        69       216             0.0             0.0             1.0            91.0
         1        77       208             0.0             0.0             1.0            92.0
         1        78       205             0.0             0.0             1.0            93.0
        93         0 # stress period 2
         1       163       193         -0.0111             0.0             1.0             1.0
         1       151       190         -0.0097             0.0             1.0             2.0
         1       148       199         -0.0097             0.0             1.0             3.0
         1       138       199         -0.0083             0.0             1.0             4.0
         1       159       192         -0.0042             0.0             1.0             5.0
         1       156       196         -0.0014             0.0             1.0             6.0
         1       152       197         -0.0111             0.0             1.0             7.0
         1       144       197         -0.0125             0.0             1.0             8.0
         1       131       199         -0.0042             0.0             1.0             9.0
         1       123       202         -0.0083             0.0             1.0            10.0
         1       116       204         -0.0014             0.0             1.0            11.0
         1       108       206         -0.0097             0.0             1.0            12.0
         1       100       208         -0.0125             0.0             1.0            13.0
         1        92       210         -0.0083             0.0             1.0            14.0
         1        84       210         -0.0125             0.0             1.0            15.0
         1        77       211         -0.0083             0.0             1.0            16.0
         1        72       212         -0.0097             0.0             1.0            17.0
         1        67       213         -0.0069             0.0             1.0            18.0
         1        63       208         -0.0153             0.0             1.0            19.0
         1        59       214         -0.0042             0.0             1.0            20.0
         1        52       213         -0.0153             0.0             1.0            21.0
         1        44       213         -0.0069             0.0             1.0            22.0
         1       124       196         -0.0056             0.0             1.0            23.0
         1       112       203         -0.0042             0.0             1.0            24.0
         1        97       204         -0.0069             0.0             1.0            25.0
         1       170       197         -0.0097             0.0             1.0            26.0
         1       176       196         -0.0153             0.0             1.0            27.0
         1       143       201         -0.0042             0.0             1.0            28.0
         1       135       201         -0.0042             0.0             1.0            29.0
         1       127       201         -0.0042             0.0             1.0            30.0
         1       105       207         -0.0167             0.0             1.0            31.0
         1        94       208         -0.0153             0.0             1.0            32.0
         1        88       208         -0.0056             0.0             1.0            33.0
         1        81       213         -0.0069             0.0             1.0            34.0
         1        68       208         -0.0181             0.0             1.0            35.0
         1        61       216         -0.0278             0.0             1.0            36.0
         1        55       210         -0.0125             0.0             1.0            37.0
         1        47       216         -0.0097             0.0             1.0            38.0
         1        39       213         -0.0028             0.0             1.0            39.0
         1        38       218         -0.0167             0.0             1.0            40.0
         1        80       208         -0.0028             0.0             1.0            41.0
         1       118       201         -0.0056             0.0             1.0            42.0
         1       134       197         -0.0042             0.0             1.0            43.0
         1       158       200         -0.0069             0.0             1.0            44.0
         1       165       198         -0.0097             0.0             1.0            45.0
         1       169       194         -0.0028             0.0             1.0            46.0
         1       181       197         -0.0069             0.0             1.0            47.0
         1       174       193         -0.0014             0.0             1.0            48.0
         1        65       217         -0.0083             0.0             1.0            49.0
         1        61       211         -0.0014             0.0             1.0            50.0
         1        56       215         -0.0042             0.0             1.0            51.0
         1        39       216         -0.0083             0.0             1.0            52.0
         1        32       218         -0.0236             0.0             1.0            53.0
         1        73       208         -0.0083             0.0             1.0            54.0
         1        76       213         -0.0014             0.0             1.0            55.0
         1        83       206         -0.0181             0.0             1.0            56.0
         1        88       211         -0.0042             0.0             1.0            57.0
         1        48       212         -0.0014             0.0             1.0            58.0
         1       103       205         -0.0278             0.0             1.0            59.0
         1        91       205         -0.0083             0.0             1.0            60.0
         1       106       202         -0.0153             0.0             1.0            61.0
         1       114       206         -0.0014             0.0             1.0            62.0
         1       116       198         -0.0083             0.0             1.0            63.0
         1       127       198         -0.0083             0.0             1.0            64.0
         1       131       203         -0.0042             0.0             1.0            65.0
         1       138       195         -0.0014             0.0             1.0            66.0
         1       152       200         -0.0139             0.0             1.0            67.0
         1       145       193         -0.0083             0.0             1.0            68.0
         1       130       195         -0.0222             0.0             1.0            69.0
         1       162       197         -0.0083             0.0             1.0            70.0
         1       166       190         -0.0042             0.0             1.0            71.0
         1        86       204         -0.0236             0.0             1.0            72.0
         1       173       198         -0.0014             0.0             1.0            73.0
         1       170       190         -0.0083             0.0             1.0            74.0
         1       180       193         -0.0083             0.0             1.0            75.0
         1       149       194         -0.0208             0.0             1.0            76.0
         1        35       218         -0.0014             0.0             1.0            77.0
         1        34       215         -0.0014             0.0             1.0            78.0
         1        43       215         -0.0153             0.0             1.0            79.0
         1        52       217         -0.0083             0.0             1.0            80.0
         1        59       217         -0.0153             0.0             1.0            81.0
         1        57       211         -0.0042             0.0             1.0            82.0
         1        63       213         -0.0153             0.0             1.0            83.0
         1        42       211         -0.0083             0.0             1.0            84.0
         1        35       214         -0.0056             0.0             1.0            85.0
         1        51       211         -0.0153             0.0             1.0            86.0
         1        46       209         -0.0056             0.0             1.0            87.0
         1        65       211         -0.0042             0.0             1.0            88.0
         1        54       213         -0.0056             0.0             1.0            89.0
         1        53       208         -0.0083             0.0             1.0            90.0
         1        69       216         -0.0056             0.0             1.0            91.0
         1        77       208          -0.025             0.0             1.0            92.0
         1        78       205         -0.0042             0.0             1.0            93.0
        93         0 # stress period 3
         1       163       193         -0.0111             0.0             1.0             1.0
         1       151       190         -0.0097             0.0             1.0             2.0
         1       148       199         -0.0097             0.0             1.0             3.0
         1       138       199         -0.0083             0.0             1.0             4.0
         1       159       192         -0.0042             0.0             1.0             5.0
         1       156       196         -0.0014             0.0             1.0             6.0
         1       152       197         -0.0111             0.0             1.0             7.0
         1       144       197         -0.0125             0.0             1.0             8.0
         1       131       199         -0.0042             0.0             1.0             9.0
         1       123       202         -0.0083             0.0             1.0            10.0
         1       116       204         -0.0014             0.0             1.0            11.0
         1       108       206         -0.0097             0.0             1.0            12.0
         1       100       208         -0.0125             0.0             1.0            13.0
         1        92       210         -0.0083             0.0             1.0            14.0
         1        84       210         -0.0125             0.0             1.0            15.0
         1        77       211         -0.0083             0.0             1.0            16.0
         1        72       212         -0.0097             0.0             1.0            17.0
         1        67       213         -0.0069             0.0             1.0            18.0
         1        63       208         -0.0153             0.0             1.0            19.0
         1        59       214         -0.0042             0.0             1.0            20.0
         1        52       213         -0.0153             0.0             1.0            21.0
         1        44       213         -0.0069             0.0             1.0            22.0
         1       124       196         -0.0056             0.0             1.0            23.0
         1       112       203         -0.0042             0.0             1.0            24.0
         1        97       204         -0.0069             0.0             1.0            25.0
         1       170       197         -0.0097             0.0             1.0            26.0
         1       176       196         -0.0153             0.0             1.0            27.0
         1       143       201         -0.0042             0.0             1.0            28.0
         1       135       201         -0.0042             0.0             1.0            29.0
         1       127       201         -0.0042             0.0             1.0            30.0
         1       105       207         -0.0167             0.0             1.0            31.0
         1        94       208         -0.0153             0.0             1.0            32.0
         1        88       208         -0.0056             0.0             1.0            33.0
         1        81       213         -0.0069             0.0             1.0            34.0
         1        68       208         -0.0181             0.0             1.0            35.0
         1        61       216         -0.0278             0.0             1.0            36.0
         1        55       210         -0.0125             0.0             1.0            37.0
         1        47       216         -0.0097             0.0             1.0            38.0
         1        39       213         -0.0028             0.0             1.0            39.0
         1        38       218         -0.0167             0.0             1.0            40.0
         1        80       208         -0.0028             0.0             1.0            41.0
         1       118       201         -0.0056             0.0             1.0            42.0
         1       134       197         -0.0042             0.0             1.0            43.0
         1       158       200         -0.0069             0.0             1.0            44.0
         1       165       198         -0.0097             0.0             1.0            45.0
         1       169       194         -0.0028             0.0             1.0            46.0
         1       181       197         -0.0069             0.0             1.0            47.0
         1       174       193         -0.0014             0.0             1.0            48.0
         1        65       217         -0.0083             0.0             1.0            49.0
         1        61       211         -0.0014             0.0             1.0            50.0
         1        56       215         -0.0042             0.0             1.0            51.0
         1        39       216         -0.0083             0.0             1.0            52.0
         1        32       218         -0.0236             0.0             1.0            53.0
         1        73       208         -0.0083             0.0             1.0            54.0
         1        76       213         -0.0014             0.0             1.0            55.0
         1        83       206         -0.0181             0.0             1.0            56.0
         1        88       211         -0.0042             0.0             1.0            57.0
         1        48       212         -0.0014             0.0             1.0            58.0
         1       103       205         -0.0278             0.0             1.0            59.0
         1        91       205         -0.0083             0.0             1.0            60.0
         1       106       202         -0.0153             0.0             1.0            61.0
         1       114       206         -0.0014             0.0             1.0            62.0
         1       116       198         -0.0083             0.0             1.0            63.0
         1       127       198         -0.0083             0.0             1.0            64.0
         1       131       203         -0.0042             0.0             1.0            65.0
         1       138       195         -0.0014             0.0             1.0            66.0
         1       152       200         -0.0139             0.0             1.0            67.0
         1       145       193         -0.0083             0.0             1.0            68.0
         1       130       195         -0.0222             0.0             1.0            69.0
         1       162       197         -0.0083             0.0             1.0            70.0
         1       166       190         -0.0042             0.0             1.0            71.0
         1        86       204         -0.0236             0.0             1.0            72.0
         1       173       198         -0.0014             0.0             1.0            73.0
         1       170       190         -0.0083             0.0             1.0            74.0
         1       180       193         -0.0083             0.0             1.0            75.0
         1       149       194         -0.0208             0.0             1.0            76.0
         1        35       218         -0.0014             0.0             1.0            77.0
         1        34       215         -0.0014             0.0             1.0            78.0
         1        43       215         -0.0153             0.0             1.0            79.0
         1        52       217         -0.0083             0.0             1.0            80.0
         1        59       217         -0.0153             0.0             1.0            81.0
         1        57       211         -0.0042             0.0             1.0            82.0
         1        63       213         -0.0153             0.0             1.0            83.0
         1        42       211         -0.0083             0.0             1.0            84.0
         1        35       214         -0.0056             0.0             1.0            85.0
         1        51       211         -0.0153             0.0             1.0            86.0
         1        46       209         -0.0056             0.0             1.0            87.0
         1        65       211         -0.0042             0.0             1.0            88.0
         1        54       213         -0.0056             0.0             1.0            89.0
         1        53       208         -0.0083             0.0             1.0            90.0
         1        69       216         -0.0056             0.0             1.0            91.0
         1        77       208          -0.025             0.0             1.0            92.0
         1        78       205         -0.0042             0.0             1.0            93.0
        93         0 # stress period 4
         1       163       193         -0.0111             0.0             1.0             1.0
         1       151       190         -0.0097             0.0             1.0             2.0
         1       148       199         -0.0097             0.0             1.0             3.0
         1       138       199         -0.0083             0.0             1.0             4.0
         1       159       192         -0.0042             0.0             1.0             5.0
         1       156       196         -0.0014             0.0             1.0             6.0
         1       152       197         -0.0111             0.0             1.0             7.0
         1       144       197         -0.0125             0.0             1.0             8.0
         1       131       199         -0.0042             0.0             1.0             9.0
         1       123       202         -0.0083             0.0             1.0            10.0
         1       116       204         -0.0014             0.0             1.0            11.0
         1       108       206         -0.0097             0.0             1.0            12.0
         1       100       208         -0.0125             0.0             1.0            13.0
         1        92       210         -0.0083             0.0             1.0            14.0
         1        84       210         -0.0125             0.0             1.0            15.0
         1        77       211         -0.0083             0.0             1.0            16.0
         1        72       212         -0.0097             0.0             1.0            17.0
         1        67       213         -0.0069             0.0             1.0            18.0
         1        63       208         -0.0153             0.0             1.0            19.0
         1        59       214         -0.0042             0.0             1.0            20.0
         1        52       213         -0.0153             0.0             1.0            21.0
         1        44       213         -0.0069             0.0             1.0            22.0
         1       124       196         -0.0056             0.0             1.0            23.0
         1       112       203         -0.0042             0.0             1.0            24.0
         1        97       204         -0.0069             0.0             1.0            25.0
         1       170       197         -0.0097             0.0             1.0            26.0
         1       176       196         -0.0153             0.0             1.0            27.0
         1       143       201         -0.0042             0.0             1.0            28.0
         1       135       201         -0.0042             0.0             1.0            29.0
         1       127       201         -0.0042             0.0             1.0            30.0
         1       105       207         -0.0167             0.0             1.0            31.0
         1        94       208         -0.0153             0.0             1.0            32.0
         1        88       208         -0.0056             0.0             1.0            33.0
         1        81       213         -0.0069             0.0             1.0            34.0