# HOB package for  MODFLOW-2005, generated by Flopy.
      1560         0         0        17      -777
         1
hed1                    1        133        198       -520                  0.0    -0.1952     0.0479     0.0000   # DATASET 3 - Observation 1
         1                                                                                                         # DATASET 5 - Observation 1
no_hed1                 1              60480.0     0.0000                                                          # DATASET 6 - Observation 1.1
no_hed2                 1             120960.0     0.0000                                                          # DATASET 6 - Observation 1.2
no_hed3                 1             181440.0     0.0000                                                          # DATASET 6 - Observation 1.3
no_hed4                 1             241920.0     0.0000                                                          # DATASET 6 - Observation 1.4
no_hed5                 1             302400.0     0.0000                                                          # DATASET 6 - Observation 1.5
no_hed6                 1             362880.0     0.0000                                                          # DATASET 6 - Observation 1.6
no_hed7                 1             423360.0     0.0000                                                          # DATASET 6 - Observation 1.7
no_hed8                 1             483840.0     0.0000                                                          # DATASET 6 - Observation 1.8
no_hed9                 1             544320.0     0.0000                                                          # DATASET 6 - Observation 1.9
no_hed10                2                  0.0     0.0000                                                          # DATASET 6 - Observation 1.10
no_hed11                2              60480.0     0.0000                                                          # DATASET 6 - Observation 1.11
no_hed12                2             120960.0     0.0000                                                          # DATASET 6 - Observation 1.12
no_hed13                2             181440.0     0.0000                                                          # DATASET 6 - Observation 1.13
no_hed14                2             241920.0     0.0000                                                          # DATASET 6 - Observation 1.14
no_hed15                2             302400.0     0.0000                                                          # DATASET 6 - Observation 1.15
no_hed16                2             362880.0     0.0000                                                          # DATASET 6 - Observation 1.16
no_hed17                2             423360.0     0.0000                                                          # DATASET 6 - Observation 1.17
no_hed18                2             483840.0     0.0000                                                          # DATASET 6 - Observation 1.18
no_hed19                2             544320.0     0.0000                                                          # DATASET 6 - Observation 1.19
no_hed20                3                  0.0     0.0000                                                          # DATASET 6 - Observation 1.20
no_hed21                3              60480.0     0.0000                                                          # DATASET 6 - Observation 1.21
no_hed22                3             120960.0     0.0000                                                          # DATASET 6 - Observation 1.22
no_hed23                3             181440.0     0.0000                                                          # DATASET 6 - Observation 1.23
no_hed24                3             241920.0     0.0000                                                          # DATASET 6 - Observation 1.24
no_hed25                3             302400.0     0.0000                                                          # DATASET 6 - Observation 1.25
no_hed26                3             362880.0     0.0000                                                          # DATASET 6 - Observation 1.26
no_hed27                3             423360.0     0.0000                                                          # DATASET 6 - Observation 1.27
no_hed28                3             483840.0     0.0000                                                          # DATASET 6 - Observation 1.28
no_hed29                3             544320.0     0.0000                                                          # DATASET 6 - Observation 1.29
no_hed30                4                  0.0     0.0000                                                          # DATASET 6 - Observation 1.30
no_hed31                4              60480.0     0.0000                                                          # DATASET 6 - Observation 1.31
no_hed32                4             120960.0     0.0000                                                          # DATASET 6 - Observation 1.32
no_hed33                4             181440.0     0.0000                                                          # DATASET 6 - Observation 1.33
no_hed34                4             241920.0     0.0000                                                          # DATASET 6 - Observation 1.34
no_hed35                4             302400.0     0.0000                                                          # DATASET 6 - Observation 1.35
no_hed36                4             362880.0     0.0000                                                          # DATASET 6 - Observation 1.36
no_hed37                4             423360.0     0.0000                                                          # DATASET 6 - Observation 1.37
no_hed38                4             483840.0     0.0000                                                          # DATASET 6 - Observation 1.38
no_hed39                4             544320.0     0.0000                                                          # DATASET 6 - Observation 1.39
no_hed40                5                  0.0     0.0000                                                          # DATASET 6 - Observation 1.40
no_hed41                5              60480.0     0.0000                                                          # DATASET 6 - Observation 1.41
no_hed42                5             120960.0     0.0000                                                          # DATASET 6 - Observation 1.42
no_hed43                5             181440.0     0.0000                                                          # DATASET 6 - Observation 1.43
no_hed44                5             241920.0     0.0000                                                          # DATASET 6 - Observation 1.44
no_hed45                5             302400.0     0.0000                                                          # DATASET 6 - Observation 1.45
no_hed46                5             362880.0     0.0000                                                          # DATASET 6 - Observation 1.46
no_hed47                5             423360.0     0.0000                                                          # DATASET 6 - Observation 1.47
no_hed48                5             483840.0     0.0000                                                          # DATASET 6 - Observation 1.48
no_hed49                5             544320.0     0.0000                                                          # DATASET 6 - Observation 1.49
no_hed50                6                  0.0     0.0000                                                          # DATASET 6 - Observation 1.50
no_hed51                6              60480.0     0.0000                                                          # DATASET 6 - Observation 1.51
no_hed52                6             120960.0     0.0000                                                          # DATASET 6 - Observation 1.52
no_hed53                6             181440.0     0.0000                                                          # DATASET 6 - Observation 1.53
no_hed54                6             241920.0     0.0000                                                          # DATASET 6 - Observation 1.54
no_hed55                6             302400.0     0.0000                                                          # DATASET 6 - Observation 1.55
no_hed56                6             362880.0     0.0000                                                          # DATASET 6 - Observation 1.56
no_hed57                6             423360.0     0.0000                                                          # DATASET 6 - Observation 1.57
no_hed58                6             483840.0     0.0000                                                          # DATASET 6 - Observation 1.58
no_hed59                6             544320.0     0.0000                                                          # DATASET 6 - Observation 1.59
no_hed60                7                  0.0     0.0000                                                          # DATASET 6 - Observation 1.60
no_hed61                7              60480.0     0.0000                                                          # DATASET 6 - Observation 1.61
no_hed62                7             120960.0     0.0000                                                          # DATASET 6 - Observation 1.62
no_hed63                7             181440.0     0.0000                                                          # DATASET 6 - Observation 1.63
no_hed64                7             241920.0     0.0000                                                          # DATASET 6 - Observation 1.64
no_hed65                7             302400.0     0.0000                                                          # DATASET 6 - Observation 1.65
no_hed66                7             362880.0     0.0000                                                          # DATASET 6 - Observation 1.66
no_hed67                7             423360.0     0.0000                                                          # DATASET 6 - Observation 1.67
no_hed68                7             483840.0     0.0000                                                          # DATASET 6 - Observation 1.68
no_hed69                7             544320.0     0.0000                                                          # DATASET 6 - Observation 1.69
no_hed70                8                  0.0     0.0000                                                          # DATASET 6 - Observation 1.70
no_hed71                8              60480.0     0.0000                                                          # DATASET 6 - Observation 1.71
no_hed72                8             120960.0     0.0000                                                          # DATASET 6 - Observation 1.72
no_hed73                8             181440.0     0.0000                                                          # DATASET 6 - Observation 1.73
no_hed74                8             241920.0     0.0000                                                          # DATASET 6 - Observation 1.74
no_hed75                8             302400.0     0.0000                                                          # DATASET 6 - Observation 1.75
no_hed76                8             362880.0     0.0000                                                          # DATASET 6 - Observation 1.76
no_hed77                8             423360.0     0.0000                                                          # DATASET 6 - Observation 1.77
no_hed78                8             483840.0     0.0000                                                          # DATASET 6 - Observation 1.78
no_hed79                8             544320.0     0.0000                                                          # DATASET 6 - Observation 1.79
no_hed80                9                  0.0     0.0000                                                          # DATASET 6 - Observation 1.80
no_hed81                9              60480.0     0.0000                                                          # DATASET 6 - Observation 1.81
no_hed82                9             120960.0     0.0000                                                          # DATASET 6 - Observation 1.82
no_hed83                9             181440.0     0.0000                                                          # DATASET 6 - Observation 1.83
no_hed84                9             241920.0     0.0000                                                          # DATASET 6 - Observation 1.84
no_hed85                9             302400.0     0.0000                                                          # DATASET 6 - Observation 1.85
no_hed86                9             362880.0     0.0000                                                          # DATASET 6 - Observation 1.86
no_hed87                9             423360.0     0.0000                                                          # DATASET 6 - Observation 1.87
no_hed88                9             483840.0     0.0000                                                          # DATASET 6 - Observation 1.88
no_hed89                9             544320.0     0.0000                                                          # DATASET 6 - Observation 1.89
no_hed90               10                  0.0     0.0000                                                          # DATASET 6 - Observation 1.90
no_hed91               10              60480.0     0.0000                                                          # DATASET 6 - Observation 1.91
no_hed92               10             120960.0     0.0000                                                          # DATASET 6 - Observation 1.92
no_hed93               10             181440.0     0.0000                                                          # DATASET 6 - Observation 1.93
no_hed94               10             241920.0     0.0000                                                          # DATASET 6 - Observation 1.94
no_hed95               10             302400.0     0.0000                                                          # DATASET 6 - Observation 1.95
no_hed96               10             362880.0     0.0000                                                          # DATASET 6 - Observation 1.96
no_hed97               10             423360.0     0.0000                                                          # DATASET 6 - Observation 1.97
no_hed98               10             483840.0     0.0000                                                          # DATASET 6 - Observation 1.98
no_hed99               10             544320.0     0.0000                                                          # DATASET 6 - Observation 1.99
no_hed100              11                  0.0     0.0000                                                          # DATASET 6 - Observation 1.100
no_hed101              11              60480.0     0.0000                                                          # DATASET 6 - Observation 1.101
no_hed102              11             120960.0     0.0000                                                          # DATASET 6 - Observation 1.102
no_hed103              11             181440.0     0.0000                                                          # DATASET 6 - Observation 1.103
no_hed104              11             241920.0     0.0000                                                          # DATASET 6 - Observation 1.104
no_hed105              11             302400.0     0.0000                                                          # DATASET 6 - Observation 1.105
no_hed106              11             362880.0     0.0000                                                          # DATASET 6 - Observation 1.106
no_hed107              11             423360.0     0.0000                                                          # DATASET 6 - Observation 1.107
no_hed108              11             483840.0     0.0000                                                          # DATASET 6 - Observation 1.108
no_hed109              11             544320.0     0.0000                                                          # DATASET 6 - Observation 1.109
no_hed110              12                  0.0     0.0000                                                          # DATASET 6 - Observation 1.110
no_hed111              12              60480.0     0.0000                                                          # DATASET 6 - Observation 1.111
no_hed112              12             120960.0     0.0000                                                          # DATASET 6 - Observation 1.112
no_hed113              12             181440.0     0.0000                                                          # DATASET 6 - Observation 1.113
no_hed114              12             241920.0     0.0000                                                          # DATASET 6 - Observation 1.114
no_hed115              12             302400.0     0.0000                                                          # DATASET 6 - Observation 1.115
no_hed116              12             362880.0     0.0000                                                          # DATASET 6 - Observation 1.116
no_hed117              12             423360.0     0.0000                                                          # DATASET 6 - Observation 1.117
no_hed118              12             483840.0     0.0000                                                          # DATASET 6 - Observation 1.118
no_hed119              12             544320.0     0.0000                                                          # DATASET 6 - Observation 1.119
no_hed120              13                  0.0     0.0000                                                          # DATASET 6 - Observation 1.120
no_hed121              13              60480.0     0.0000                                                          # DATASET 6 - Observation 1.121
no_hed122              13             120960.0     0.0000                                                          # DATASET 6 - Observation 1.122
no_hed123              13             181440.0     0.0000                                                          # DATASET 6 - Observation 1.123
no_hed124              13             241920.0     0.0000                                                          # DATASET 6 - Observation 1.124
no_hed125              13             302400.0     0.0000                                                          # DATASET 6 - Observation 1.125
no_hed126              13             362880.0     0.0000                                                          # DATASET 6 - Observation 1.126
no_hed127              13             423360.0     0.0000                                                          # DATASET 6 - Observation 1.127
no_hed128              13             483840.0     0.0000                                                          # DATASET 6 - Observation 1.128
no_hed129              13             544320.0     0.0000                                                          # DATASET 6 - Observation 1.129
no_hed130              14                  0.0     0.0000                                                          # DATASET 6 - Observation 1.130
no_hed131              14              60480.0     0.0000                                                          # DATASET 6 - Observation 1.131
no_hed132              14             120960.0     0.0000                                                          # DATASET 6 - Observation 1.132
no_hed133              14             181440.0     0.0000                                                          # DATASET 6 - Observation 1.133
no_hed134              14             241920.0     0.0000                                                          # DATASET 6 - Observation 1.134
no_hed135              14             302400.0     0.0000                                                          # DATASET 6 - Observation 1.135
no_hed136              14             362880.0     0.0000                                                          # DATASET 6 - Observation 1.136
no_hed137              14             423360.0     0.0000                                                          # DATASET 6 - Observation 1.137
no_hed138              14             483840.0     0.0000                                                          # DATASET 6 - Observation 1.138
no_hed139              14             544320.0     0.0000                                                          # DATASET 6 - Observation 1.139
no_hed140              15                  0.0     0.0000                                                          # DATASET 6 - Observation 1.140
no_hed141              15              60480.0     0.0000                                                          # DATASET 6 - Observation 1.141
no_hed142              15             120960.0     0.0000                                                          # DATASET 6 - Observation 1.142
no_hed143              15             181440.0     0.0000                                                          # DATASET 6 - Observation 1.143
no_hed144              15             241920.0     0.0000                                                          # DATASET 6 - Observation 1.144
no_hed145              15             302400.0     0.0000                                                          # DATASET 6 - Observation 1.145
no_hed146              15             362880.0     0.0000                                                          # DATASET 6 - Observation 1.146
no_hed147              15             423360.0     0.0000                                                          # DATASET 6 - Observation 1.147
no_hed148              15             483840.0     0.0000                                                          # DATASET 6 - Observation 1.148
no_hed149              15             544320.0     0.0000                                                          # DATASET 6 - Observation 1.149
no_hed150              16                  0.0     0.0000                                                          # DATASET 6 - Observation 1.150
no_hed151              16              60480.0     0.0000                                                          # DATASET 6 - Observation 1.151
no_hed152              16             120960.0     0.0000                                                          # DATASET 6 - Observation 1.152
no_hed153              16             181440.0     0.0000                                                          # DATASET 6 - Observation 1.153
no_hed154              16             241920.0     0.0000                                                          # DATASET 6 - Observation 1.154
no_hed155              16             302400.0     0.0000                                                          # DATASET 6 - Observation 1.155
no_hed156              16             362880.0     0.0000                                                          # DATASET 6 - Observation 1.156
no_hed157              16             423360.0     0.0000                                                          # DATASET 6 - Observation 1.157
no_hed158              16             483840.0     0.0000                                                          # DATASET 6 - Observation 1.158
no_hed159              16             544320.0     0.0000                                                          # DATASET 6 - Observation 1.159
no_hed160              17                  0.0     0.0000                                                          # DATASET 6 - Observation 1.160
no_hed161              17              60480.0     0.0000                                                          # DATASET 6 - Observation 1.161
no_hed162              17             120960.0     0.0000                                                          # DATASET 6 - Observation 1.162
no_hed163              17             181440.0     0.0000                                                          # DATASET 6 - Observation 1.163
no_hed164              17             241920.0     0.0000                                                          # DATASET 6 - Observation 1.164
no_hed165              17             302400.0     0.0000                                                          # DATASET 6 - Observation 1.165
no_hed166              17             362880.0     0.0000                                                          # DATASET 6 - Observation 1.166
no_hed167              17             423360.0     0.0000                                                          # DATASET 6 - Observation 1.167
no_hed168              17             483840.0     0.0000                                                          # DATASET 6 - Observation 1.168
no_hed169              17             544320.0     0.0000                                                          # DATASET 6 - Observation 1.169
no_hed170              18                  0.0     0.0000                                                          # DATASET 6 - Observation 1.170
no_hed171              18              60480.0     0.0000                                                          # DATASET 6 - Observation 1.171
no_hed172              18             120960.0     0.0000                                                          # DATASET 6 - Observation 1.172
no_hed173              18             181440.0     0.0000                                                          # DATASET 6 - Observation 1.173
no_hed174              18             241920.0     0.0000                                                          # DATASET 6 - Observation 1.174
no_hed175              18             302400.0     0.0000                                                          # DATASET 6 - Observation 1.175
no_hed176              18             362880.0     0.0000                                                          # DATASET 6 - Observation 1.176
no_hed177              18             423360.0     0.0000                                                          # DATASET 6 - Observation 1.177
no_hed178              18             483840.0     0.0000                                                          # DATASET 6 - Observation 1.178
no_hed179              18             544320.0     0.0000                                                          # DATASET 6 - Observation 1.179
no_hed180              19                  0.0     0.0000                                                          # DATASET 6 - Observation 1.180
no_hed181              19              60480.0     0.0000                                                          # DATASET 6 - Observation 1.181
no_hed182              19             120960.0     0.0000                                                          # DATASET 6 - Observation 1.182
no_hed183              19             181440.0     0.0000                                                          # DATASET 6 - Observation 1.183
no_hed184              19             241920.0     0.0000                                                          # DATASET 6 - Observation 1.184
no_hed185              19             302400.0     0.0000                                                          # DATASET 6 - Observation 1.185
no_hed186              19             362880.0     0.0000                                                          # DATASET 6 - Observation 1.186
no_hed187              19             423360.0     0.0000                                                          # DATASET 6 - Observation 1.187
no_hed188              19             483840.0     0.0000                                                          # DATASET 6 - Observation 1.188
no_hed189              19             544320.0     0.0000                                                          # DATASET 6 - Observation 1.189
no_hed190              20                  0.0     0.0000                                                          # DATASET 6 - Observation 1.190
no_hed191              20              60480.0     0.0000                                                          # DATASET 6 - Observation 1.191
no_hed192              20             120960.0     0.0000                                                          # DATASET 6 - Observation 1.192
no_hed193              20             181440.0     0.0000                                                          # DATASET 6 - Observation 1.193
no_hed194              20             241920.0     0.0000                                                          # DATASET 6 - Observation 1.194
no_hed195              20             302400.0     0.0000                                                          # DATASET 6 - Observation 1.195
no_hed196              20             362880.0     0.0000                                                          # DATASET 6 - Observation 1.196
no_hed197              20             423360.0     0.0000                                                          # DATASET 6 - Observation 1.197
no_hed198              20             483840.0     0.0000                                                          # DATASET 6 - Observation 1.198
no_hed199              20             544320.0     0.0000                                                          # DATASET 6 - Observation 1.199
no_hed200              21                  0.0     0.0000                                                          # DATASET 6 - Observation 1.200
no_hed201              21              60480.0     0.0000                                                          # DATASET 6 - Observation 1.201
no_hed202              21             120960.0     0.0000                                                          # DATASET 6 - Observation 1.202