# OC package for  MODFLOW-2005, generated by Flopy.
HEAD PRINT FORMAT   0
HEAD SAVE UNIT     3
DRAWDOWN PRINT FORMAT   0
COMPACT BUDGET AUX

period 1 step 1 
  print budget
  save head
  save budget

period 1 step 2 
  print budget
  save head
  save budget

period 1 step 3 
  print budget
  save head
  save budget

period 1 step 4 
  print budget
  save head
  save budget

period 1 step 5 
  print budget
  save head
  save budget

period 1 step 6 
  print budget
  save head
  save budget

period 1 step 7 
  print budget
  save head
  save budget

period 1 step 8 
  print budget
  save head
  save budget

period 1 step 9 
  print budget
  save head
  save budget

period 1 step 10 
  print budget
  save head
  save budget

period 2 step 1 
  print budget
  save head
  save budget

period 2 step 2 
  print budget
  save head
  save budget

period 2 step 3 
  print budget
  save head
  save budget

period 2 step 4 
  print budget
  save head
  save budget

period 2 step 5 
  print budget
  save head
  save budget

period 2 step 6 
  print budget
  save head
  save budget

period 2 step 7 
  print budget
  save head
  save budget

period 2 step 8 
  print budget
  save head
  save budget

period 2 step 9 
  print budget
  save head
  save budget

period 2 step 10 
  print budget
  save head
  save budget

period 3 step 1 
  print budget
  save head
  save budget

period 3 step 2 
  print budget
  save head
  save budget

period 3 step 3 
  print budget
  save head
  save budget

period 3 step 4 
  print budget
  save head
  save budget

period 3 step 5 
  print budget
  save head
  save budget

period 3 step 6 
  print budget
  save head
  save budget

period 3 step 7 
  print budget
  save head
  save budget

period 3 step 8 
  print budget
  save head
  save budget

period 3 step 9 
  print budget
  save head
  save budget

period 3 step 10 
  print budget
  save head
  save budget

period 4 step 1 
  print budget
  save head
  save budget

period 4 step 2 
  print budget
  save head
  save budget

period 4 step 3 
  print budget
  save head
  save budget

period 4 step 4 
  print budget
  save head
  save budget

period 4 step 5 
  print budget
  save head
  save budget

period 4 step 6 
  print budget
  save head
  save budget

period 4 step 7 
  print budget
  save head
  save budget

period 4 step 8 
  print budget
  save head
  save budget

period 4 step 9 
  print budget
  save head
  save budget

period 4 step 10 
  print budget
  save head
  save budget

period 5 step 1 
  print budget
  save head
  save budget

period 5 step 2 
  print budget
  save head
  save budget

period 5 step 3 
  print budget
  save head
  save budget

period 5 step 4 
  print budget
  save head
  save budget

period 5 step 5 
  print budget
  save head
  save budget

period 5 step 6 
  print budget
  save head
  save budget

period 5 step 7 
  print budget
  save head
  save budget

period 5 step 8 
  print budget
  save head
  save budget

period 5 step 9 
  print budget
  save head
  save budget

period 5 step 10 
  print budget
  save head
  save budget

period 6 step 1 
  print budget
  save head
  save budget

period 6 step 2 
  print budget
  save head
  save budget

period 6 step 3 
  print budget
  save head
  save budget

period 6 step 4 
  print budget
  save head
  save budget

period 6 step 5 
  print budget
  save head
  save budget

period 6 step 6 
  print budget
  save head
  save budget

period 6 step 7 
  print budget
  save head
  save budget

period 6 step 8 
  print budget
  save head
  save budget

period 6 step 9 
  print budget
  save head
  save budget

period 6 step 10 
  print budget
  save head
  save budget

period 7 step 1 
  print budget
  save head
  save budget

period 7 step 2 
  print budget
  save head
  save budget

period 7 step 3 
  print budget
  save head
  save budget

period 7 step 4 
  print budget
  save head
  save budget

period 7 step 5 
  print budget
  save head
  save budget

period 7 step 6 
  print budget
  save head
  save budget

period 7 step 7 
  print budget
  save head
  save budget

period 7 step 8 
  print budget
  save head
  save budget

period 7 step 9 
  print budget
  save head
  save budget

period 7 step 10 
  print budget
  save head
  save budget

period 8 step 1 
  print budget
  save head
  save budget

period 8 step 2 
  print budget
  save head
  save budget

period 8 step 3 
  print budget
  save head
  save budget

period 8 step 4 
  print budget
  save head
  save budget

period 8 step 5 
  print budget
  save head
  save budget

period 8 step 6 
  print budget
  save head
  save budget

period 8 step 7 
  print budget
  save head
  save budget

period 8 step 8 
  print budget
  save head
  save budget

period 8 step 9 
  print budget
  save head
  save budget

period 8 step 10 
  print budget
  save head
  save budget

period 9 step 1 
  print budget
  save head
  save budget

period 9 step 2 
  print budget
  save head
  save budget

period 9 step 3 
  print budget
  save head
  save budget

period 9 step 4 
  print budget
  save head
  save budget

period 9 step 5 
  print budget
  save head
  save budget

period 9 step 6 
  print budget
  save head
  save budget

period 9 step 7 
  print budget
  save head
  save budget

period 9 step 8 
  print budget
  save head
  save budget

period 9 step 9 
  print budget
  save head
  save budget

period 9 step 10 
  print budget
  save head
  save budget

period 10 step 1 
  print budget
  save head
  save budget

period 10 step 2 
  print budget
  save head
  save budget

period 10 step 3 
  print budget
  save head
  save budget

period 10 step 4 
  print budget
  save head
  save budget

period 10 step 5 
  print budget
  save head
  save budget

period 10 step 6 
  print budget
  save head
  save budget

period 10 step 7 
  print budget
  save head
  save budget

period 10 step 8 
  print budget
  save head
  save budget

period 10 step 9 
  print budget
  save head
  save budget

period 10 step 10 
  print budget
  save head
  save budget

period 11 step 1 
  print budget
  save head
  save budget

period 11 step 2 
  print budget
  save head
  save budget

period 11 step 3 
  print budget
  save head
  save budget

period 11 step 4 
  print budget
  save head
  save budget

period 11 step 5 
  print budget
  save head
  save budget

period 11 step 6 
  print budget
  save head
  save budget

period 11 step 7 
  print budget
  save head
  save budget

period 11 step 8 
  print budget
  save head
  save budget

period 11 step 9 
  print budget
  save head
  save budget

period 11 step 10 
  print budget
  save head
  save budget

period 12 step 1 
  print budget
  save head
  save budget

period 12 step 2 
  print budget
  save head
  save budget

period 12 step 3 
  print budget
  save head
  save budget

period 12 step 4 
  print budget
  save head
  save budget

period 12 step 5 
  print budget
  save head
  save budget

period 12 step 6 
  print budget
  save head
  save budget

period 12 step 7 
  print budget
  save head
  save budget

period 12 step 8 
  print budget
  save head
  save budget

period 12 step 9 
  print budget
  save head
  save budget

period 12 step 10 
  print budget
  save head
  save budget

period 13 step 1 
  print budget
  save head
  save budget

period 13 step 2 
  print budget
  save head
  save budget

period 13 step 3 
  print budget
  save head
  save budget

period 13 step 4 
  print budget
  save head
  save budget

period 13 step 5 
  print budget
  save head
  save budget

period 13 step 6 
  print budget
  save head
  save budget

period 13 step 7 
  print budget
  save head
  save budget

period 13 step 8 
  print budget
  save head
  save budget

period 13 step 9 
  print budget
  save head
  save budget

period 13 step 10 
  print budget
  save head
  save budget

period 14 step 1 
  print budget
  save head
  save budget

period 14 step 2 
  print budget
  save head
  save budget

period 14 step 3 
  print budget
  save head
  save budget

period 14 step 4 
  print budget
  save head
  save budget

period 14 step 5 
  print budget
  save head
  save budget

period 14 step 6 
  print budget
  save head
  save budget

period 14 step 7 
  print budget
  save head
  save budget

period 14 step 8 
  print budget
  save head
  save budget

period 14 step 9 
  print budget
  save head
  save budget

period 14 step 10 
  print budget
  save head
  save budget

period 15 step 1 
  print budget
  save head
  save budget

period 15 step 2 
  print budget
  save head
  save budget

period 15 step 3 
  print budget
  save head
  save budget

period 15 step 4 
  print budget
  save head
  save budget

period 15 step 5 
  print budget
  save head
  save budget

period 15 step 6 
  print budget
  save head
  save budget

period 15 step 7 
  print budget
  save head
  save budget

period 15 step 8 
  print budget
  save head
  save budget

period 15 step 9 
  print budget
  save head
  save budget

period 15 step 10 
  print budget
  save head
  save budget

period 16 step 1 
  print budget
  save head
  save budget

period 16 step 2 
  print budget
  save head
  save budget

period 16 step 3 
  print budget
  save head
  save budget

period 16 step 4 
  print budget
  save head
  save budget

period 16 step 5 
  print budget
  save head
  save budget

period 16 step 6 
  print budget
  save head
  save budget

period 16 step 7 
  print budget
  save head
  save budget

period 16 step 8 
  print budget
  save head
  save budget

period 16 step 9 
  print budget
  save head
  save budget

period 16 step 10 
  print budget
  save head
  save budget

period 17 step 1 
  print budget
  save head
  save budget

period 17 step 2 
  print budget
  save head
  save budget

period 17 step 3 
  print budget
  save head
  save budget

period 17 step 4 
  print budget
  save head
  save budget

period 17 step 5 
  print budget
  save head
  save budget

period 17 step 6 
  print budget
  save head
  save budget

period 17 step 7 
  print budget
  save head
  save budget

period 17 step 8 
  print budget
  save head
  save budget

period 17 step 9 
  print budget
  save head
  save budget

period 17 step 10 
  print budget
  save head
  save budget

period 18 step 1 
  print budget
  save head
  save budget

period 18 step 2 
  print budget
  save head
  save budget

period 18 step 3 
  print budget
  save head
  save budget

period 18 step 4 
  print budget
  save head
  save budget

period 18 step 5 
  print budget
  save head
  save budget

period 18 step 6 
  print budget
  save head
  save budget

period 18 step 7 
  print budget
  save head
  save budget

period 18 step 8 
  print budget
  save head
  save budget

period 18 step 9 
  print budget
  save head
  save budget

period 18 step 10 
  print budget
  save head
  save budget

period 19 step 1 
  print budget
  save head
  save budget

period 19 step 2 
  print budget
  save head
  save budget

period 19 step 3 
  print budget
  save head
  save budget

period 19 step 4 
  print budget
  save head
  save budget

period 19 step 5 
  print budget
  save head
  save budget

period 19 step 6 
  print budget
  save head
  save budget

period 19 step 7 
  print budget
  save head
  save budget

period 19 step 8 
  print budget
  save head
  save budget

period 19 step 9 
  print budget
  save head
  save budget

period 19 step 10 
  print budget
  save head
  save budget

period 20 step 1 
  print budget
  save head
  save budget

period 20 step 2 
  print budget
  save head
  save budget

period 20 step 3 
  print budget
  save head
  save budget

period 20 step 4 
  print budget
  save head
  save budget

period 20 step 5 
  print budget
  save head
  save budget

period 20 step 6 
  print budget
  save head
  save budget

period 20 step 7 
  print budget
  save head
  save budget

period 20 step 8 
  print budget
  save head
  save budget

period 20 step 9 
  print budget
  save head
  save budget

period 20 step 10 
  print budget
  save head
  save budget

period 21 step 1 
  print budget
  save head
  save budget

period 21 step 2 
  print budget
  save head
  save budget

period 21 step 3 
  print budget
  save head
  save budget

period 21 step 4 
  print budget
  save head
  save budget

period 21 step 5 
  print budget
  save head
  save budget

period 21 step 6 
  print budget
  save head
  save budget

period 21 step 7 
  print budget
  save head
  save budget

period 21 step 8 
  print budget
  save head
  save budget

period 21 step 9 
  print budget
  save head
  save budget

period 21 step 10 
  print budget
  save head
  save budget

period 22 step 1 
  print budget
  save head
  save budget

period 22 step 2 
  print budget
  save head
  save budget

period 22 step 3 
  print budget
  save head
  save budget

period 22 step 4 
  print budget
  save head
  save budget

period 22 step 5 
  print budget
  save head
  save budget

period 22 step 6 
  print budget
  save head
  save budget

period 22 step 7 
  print budget
  save head
  save budget

period 22 step 8 
  print budget
  save head
  save budget

period 22 step 9 
  print budget
  save head
  save budget

period 22 step 10 
  print budget
  save head
  save budget

period 23 step 1 
  print budget
  save head
  save budget

period 23 step 2 
  print budget
  save head
  save budget

period 23 step 3 
  print budget
  save head
  save budget

period 23 step 4 
  print budget
  save head
  save budget

period 23 step 5 
  print budget
  save head
  save budget

period 23 step 6 
  print budget
  save head
  save budget

period 23 step 7 
  print budget
  save head
  save budget

period 23 step 8 
  print budget
  save head
  save budget

period 23 step 9 
  print budget
  save head
  save budget

period 23 step 10 
  print budget
  save head
  save budget

period 24 step 1 
  print budget
  save head
  save budget

period 24 step 2 
  print budget
  save head
  save budget

period 24 step 3 
  print budget
  save head
  save budget

period 24 step 4 
  print budget
  save head
  save budget

period 24 step 5 
  print budget
  save head
  save budget

period 24 step 6 
  print budget
  save head
  save budget

period 24 step 7 
  print budget
  save head
  save budget

period 24 step 8 
  print budget
  save head
  save budget

period 24 step 9 
  print budget
  save head
  save budget

period 24 step 10 
  print budget
  save head
  save budget

period 25 step 1 
  print budget
  save head
  save budget

period 25 step 2 
  print budget
  save head
  save budget

period 25 step 3 
  print budget
  save head
  save budget

period 25 step 4 
  print budget
  save head
  save budget

period 25 step 5 
  print budget
  save head
  save budget

period 25 step 6 
  print budget
  save head
  save budget

period 25 step 7 
  print budget
  save head
  save budget

period 25 step 8 
  print budget
  save head
  save budget

period 25 step 9 
  print budget
  save head
  save budget

period 25 step 10 
  print budget
  save head
  save budget

period 26 step 1 
  print budget
  save head
  save budget

period 26 step 2 
  print budget
  save head
  save budget

period 26 step 3 
  print budget
  save head
  save budget

period 26 step 4 
  print budget
  save head
  save budget

period 26 step 5 
  print budget
  save head
  save budget

period 26 step 6 
  print budget
  save head
  save budget

period 26 step 7 
  print budget
  save head
  save budget

period 26 step 8 
  print budget
  save head
  save budget

period 26 step 9 
  print budget
  save head
  save budget

period 26 step 10 
  print budget
  save head
  save budget

period 27 step 1 
  print budget
  save head
  save budget

period 27 step 2 
  print budget
  save head
  save budget

period 27 step 3 
  print budget
  save head
  save budget

period 27 step 4 
  print budget
  save head
  save budget

period 27 step 5 
  print budget
  save head
  save budget

period 27 step 6 
  print budget
  save head
  save budget

period 27 step 7 
  print budget
  save head
  save budget

period 27 step 8 
  print budget
  save head
  save budget

period 27 step 9 
  print budget
  save head
  save budget

period 27 step 10 
  print budget
  save head
  save budget

period 28 step 1 
  print budget
  save head
  save budget

period 28 step 2 
  print budget
  save head
  save budget

period 28 step 3 
  print budget
  save head
  save budget

period 28 step 4 
  print budget
  save head
  save budget

period 28 step 5 
  print budget
  save head
  save budget

period 28 step 6 
  print budget
  save head
  save budget

period 28 step 7 
  print budget
  save head
  save budget

period 28 step 8 
  print budget
  save head
  save budget

period 28 step 9 
  print budget
  save head
  save budget

period 28 step 10 
  print budget
  save head
  save budget

period 29 step 1 
  print budget
  save head
  save budget

period 29 step 2 
  print budget
  save head
  save budget

period 29 step 3 
  print budget
  save head
  save budget

period 29 step 4 
  print budget
  save head
  save budget

period 29 step 5 
  print budget
  save head
  save budget

period 29 step 6 
  print budget
  save head
  save budget

period 29 step 7 
  print budget
  save head
  save budget

period 29 step 8 
  print budget
  save head
  save budget

period 29 step 9 
  print budget
  save head
  save budget

period 29 step 10 
  print budget
  save head
  save budget

period 30 step 1 
  print budget
  save head
  save budget

period 30 step 2 
  print budget
  save head
  save budget

period 30 step 3 
  print budget
  save head
  save budget

period 30 step 4 
  print budget
  save head
  save budget

period 30 step 5 
  print budget
  save head
  save budget

period 30 step 6 
  print budget
  save head
  save budget

period 30 step 7 
  print budget
  save head
  save budget

period 30 step 8 
  print budget
  save head
  save budget

period 30 step 9 
  print budget
  save head
  save budget

period 30 step 10 
  print budget
  save head
  save budget

period 31 step 1 
  print budget
  save head
  save budget

period 31 step 2 
  print budget
  save head
  save budget

period 31 step 3 
  print budget
  save head
  save budget

period 31 step 4 
  print budget
  save head
  save budget

period 31 step 5 
  print budget
  save head
  save budget

period 31 step 6 
  print budget
  save head
  save budget

period 31 step 7 
  print budget
  save head
  save budget

period 31 step 8 
  print budget
  save head
  save budget

period 31 step 9 
  print budget
  save head
  save budget

period 31 step 10 
  print budget
  save head
  save budget

period 32 step 1 
  print budget
  save head
  save budget

period 32 step 2 
  print budget
  save head
  save budget

period 32 step 3 
  print budget
  save head
  save budget

period 32 step 4 
  print budget
  save head
  save budget

period 32 step 5 
  print budget
  save head
  save budget

period 32 step 6 
  print budget
  save head
  save budget

period 32 step 7 
  print budget
  save head
  save budget

period 32 step 8 
  print budget
  save head
  save budget

period 32 step 9 
  print budget
  save head
  save budget

period 32 step 10 
  print budget
  save head
  save budget

period 33 step 1 
  print budget
  save head
  save budget

period 33 step 2 
  print budget
  save head
  save budget

period 33 step 3 
  print budget
  save head
  save budget

period 33 step 4 
  print budget
  save head
  save budget

period 33 step 5 
  print budget
  save head
  save budget

period 33 step 6 
  print budget
  save head
  save budget

period 33 step 7 
  print budget
  save head
  save budget

period 33 step 8 
  print budget
  save head
  save budget

period 33 step 9 
  print budget
  save head
  save budget

period 33 step 10 
  print budget
  save head
  save budget

period 34 step 1 
  print budget
  save head
  save budget

period 34 step 2 
  print budget
  save head
  save budget

period 34 step 3 
  print budget
  save head
  save budget

period 34 step 4 
  print budget
  save head
  save budget

period 34 step 5 
  print budget
  save head
  save budget

period 34 step 6 
  print budget
  save head
  save budget

period 34 step 7 
  print budget
  save head
  save budget

period 34 step 8 
  print budget
  save head
  save budget

period 34 step 9 
  print budget
  save head
  save budget

period 34 step 10 
  print budget
  save head
  save budget

period 35 step 1 
  print budget
  save head
  save budget

period 35 step 2 
  print budget
  save head
  save budget

period 35 step 3 
  print budget
  save head
  save budget

period 35 step 4 
  print budget
  save head
  save budget

period 35 step 5 
  print budget
  save head
  save budget

period 35 step 6 
  print budget
  save head
  save budget

period 35 step 7 
  print budget
  save head
  save budget

period 35 step 8 
  print budget
  save head
  save budget

period 35 step 9 
  print budget
  save head
  save budget

period 35 step 10 
  print budget
  save head
  save budget

period 36 step 1 
  print budget
  save head
  save budget

period 36 step 2 
  print budget
  save head
  save budget

period 36 step 3 
  print budget
  save head
  save budget

period 36 step 4 
  print budget
  save head
  save budget

period 36 step 5 
  print budget
  save head
  save budget

period 36 step 6 
  print budget
  save head
  save budget

period 36 step 7 
  print budget
  save head
  save budget

period 36 step 8 
  print budget
  save head
  save budget

period 36 step 9 
  print budget
  save head
  save budget

period 36 step 10 
  print budget
  save head
  save budget

period 37 step 1 
  print budget
  save head
  save budget

period 37 step 2 
  print budget
  save head
  save budget

period 37 step 3 
  print budget
  save head
  save budget

period 37 step 4 
  print budget
  save head
  save budget

period 37 step 5 
  print budget
  save head
  save budget

period 37 step 6 
  print budget
  save head
  save budget

period 37 step 7 
  print budget
  save head
  save budget

period 37 step 8 
  print budget
  save head
  save budget

period 37 step 9 
  print budget
  save head
  save budget

period 37 step 10 
  print budget
  save head
  save budget

period 38 step 1 
  print budget
  save head
  save budget

period 38 step 2 
  print budget
  save head
  save budget

period 38 step 3 
  print budget
  save head
  save budget

period 38 step 4 
  print budget
  save head
  save budget

period 38 step 5 
  print budget
  save head
  save budget

period 38 step 6 
  print budget
  save head
  save budget

period 38 step 7 
  print budget
  save head
  save budget

period 38 step 8 
  print budget
  save head
  save budget

period 38 step 9 
  print budget
  save head
  save budget

period 38 step 10 
  print budget
  save head
  save budget

period 39 step 1 
  print budget
  save head
  save budget

period 39 step 2 
  print budget
  save head
  save budget

period 39 step 3 
  print budget
  save head
  save budget

period 39 step 4 
  print budget
  save head
  save budget

period 39 step 5 
  print budget
  save head
  save budget

period 39 step 6 
  print budget
  save head
  save budget

period 39 step 7 
  print budget
  save head
  save budget

period 39 step 8 
  print budget
  save head
  save budget

period 39 step 9 
  print budget
  save head
  save budget

period 39 step 10 
  print budget
  save head
  save budget

period 40 step 1 
  print budget
  save head
  save budget

period 40 step 2 
  print budget
  save head
  save budget

period 40 step 3 
  print budget
  save head
  save budget

period 40 step 4 
  print budget
  save head
  save budget

period 40 step 5 
  print budget
  save head
  save budget

period 40 step 6 
  print budget
  save head
  save budget

period 40 step 7 
  print budget
  save head
  save budget

period 40 step 8 
  print budget
  save head
  save budget

period 40 step 9 
  print budget
  save head
  save budget

period 40 step 10 
  print budget
  save head
  save budget

period 41 step 1 
  print budget
  save head
  save budget

period 41 step 2 
  print budget
  save head
  save budget

period 41 step 3 
  print budget
  save head
  save budget

period 41 step 4 
  print budget
  save head
  save budget

period 41 step 5 
  print budget
  save head
  save budget

period 41 step 6 
  print budget
  save head
  save budget

period 41 step 7 
  print budget
  save head
  save budget

period 41 step 8 
  print budget
  save head
  save budget

period 41 step 9 
  print budget
  save head
  save budget

period 41 step 10 
  print budget
  save head
  save budget

period 42 step 1 
  print budget
  save head
  save budget

period 42 step 2 
  print budget
  save head
  save budget

period 42 step 3 
  print budget
  save head
  save budget

period 42 step 4 
  print budget
  save head
  save budget

period 42 step 5 
  print budget
  save head
  save budget

period 42 step 6 
  print budget
  save head
  save budget

period 42 step 7 
  print budget
  save head
  save budget

period 42 step 8 
  print budget
  save head
  save budget

period 42 step 9 
  print budget
  save head
  save budget

period 42 step 10 
  print budget
  save head
  save budget

period 43 step 1 
  print budget
  save head
  save budget

period 43 step 2 
  print budget
  save head
  save budget

period 43 step 3 
  print budget
  save head
  save budget

period 43 step 4 
  print budget
  save head
  save budget

period 43 step 5 
  print budget
  save head
  save budget

period 43 step 6 
  print budget
  save head
  save budget

period 43 step 7 
  print budget
  save head
  save budget

period 43 step 8 
  print budget
  save head
  save budget

period 43 step 9 
  print budget
  save head
  save budget

period 43 step 10 
  print budget
  save head
  save budget

period 44 step 1 
  print budget
  save head
  save budget

period 44 step 2 
  print budget
  save head
  save budget

period 44 step 3 
  print budget
  save head
  save budget

period 44 step 4 
  print budget
  save head
  save budget

period 44 step 5 
  print budget
  save head
  save budget

period 44 step 6 
  print budget
  save head
  save budget

period 44 step 7 
  print budget
  save head
  save budget

period 44 step 8 
  print budget
  save head
  save budget

period 44 step 9 
  print budget
  save head
  save budget

period 44 step 10 
  print budget
  save head
  save budget

period 45 step 1 
  print budget
  save head
  save budget

period 45 step 2 
  print budget
  save head
  save budget

period 45 step 3 
  print budget
  save head
  save budget

period 45 step 4 
  print budget
  save head
  save budget

period 45 step 5 
  print budget
  save head
  save budget

period 45 step 6 
  print budget
  save head
  save budget

period 45 step 7 
  print budget
  save head
  save budget

period 45 step 8 
  print budget
  save head
  save budget

period 45 step 9 
  print budget
  save head
  save budget

period 45 step 10 
  print budget
  save head
  save budget

period 46 step 1 
  print budget
  save head
  save budget

period 46 step 2 
  print budget
  save head
  save budget

period 46 step 3 
  print budget
  save head
  save budget

period 46 step 4 
  print budget
  save head
  save budget

period 46 step 5 
  print budget
  save head
  save budget

period 46 step 6 
  print budget
  save head
  save budget

period 46 step 7 
  print budget
  save head
  save budget

period 46 step 8 
  print budget
  save head
  save budget

period 46 step 9 
  print budget
  save head
  save budget

period 46 step 10 
  print budget
  save head
  save budget

period 47 step 1 
  print budget
  save head
  save budget

period 47 step 2 
  print budget
  save head
  save budget

period 47 step 3 
  print budget
  save head
  save budget

period 47 step 4 
  print budget
  save head
  save budget

period 47 step 5 
  print budget
  save head
  save budget

period 47 step 6 
  print budget
  save head
  save budget

period 47 step 7 
  print budget
  save head
  save budget

period 47 step 8 
  print budget
  save head
  save budget

period 47 step 9 
  print budget
  save head
  save budget

period 47 step 10 
  print budget
  save head
  save budget

period 48 step 1 
  print budget
  save head
  save budget

period 48 step 2 
  print budget
  save head
  save budget

period 48 step 3 
  print budget
  save head
  save budget

period 48 step 4 
  print budget
  save head
  save budget

period 48 step 5 
  print budget
  save head
  save budget

period 48 step 6 
  print budget
  save head
  save budget

period 48 step 7 
  print budget
  save head
  save budget

period 48 step 8 
  print budget
  save head
  save budget

period 48 step 9 
  print budget
  save head
  save budget

period 48 step 10 
  print budget
  save head
  save budget

period 49 step 1 
  print budget
  save head
  save budget

period 49 step 2 
  print budget
  save head
  save budget

period 49 step 3 
  print budget
  save head
  save budget

period 49 step 4 
  print budget
  save head
  save budget

period 49 step 5 
  print budget
  save head
  save budget

period 49 step 6 
  print budget
  save head
  save budget

period 49 step 7 
  print budget
  save head
  save budget

period 49 step 8 
  print budget
  save head
  save budget

period 49 step 9 
  print budget
  save head
  save budget

period 49 step 10 
  print budget
  save head
  save budget

period 50 step 1 
  print budget
  save head
  save budget

period 50 step 2 
  print budget
  save head
  save budget

period 50 step 3 
  print budget
  save head
  save budget

period 50 step 4 
  print budget
  save head
  save budget

period 50 step 5 
  print budget
  save head
  save budget

period 50 step 6 
  print budget
  save head
  save budget

period 50 step 7 
  print budget
  save head
  save budget

period 50 step 8 
  print budget
  save head
  save budget

period 50 step 9 