# CHD package for  MODFLOW-2005, generated by Flopy.
       115  AUX EHEADFACT  AUX CELLGRP
       115         0 # stress period 1
         1         8       222             0.0             0.0       49.869102       49.869102
         1         9       222             0.0             0.0       49.869102       49.869102
         1        10       222             0.0             0.0       49.869102       49.869102
         1        11       222             0.0             0.0       49.869102       49.869102
         1        12       222             0.0             0.0       49.916714       49.916714
         1        15       221             0.0             0.0       10.377119       10.377119
         1        16       221             0.0             0.0       51.293858       51.293858
         1        17       221             0.0             0.0       49.939613       49.939613
         1        18       221             0.0             0.0       49.888847       49.888847
         1        19       221             0.0             0.0       49.963837       49.963837
         1        24       220             0.0             0.0       43.266495       43.266495
         1        25       220             0.0             0.0         50.1937         50.1937
         1        26       220             0.0             0.0        49.86454        49.86454
         1        27       220             0.0             0.0        49.86454        49.86454
         1        28       220             0.0             0.0        49.86454        49.86454
         1        29       220             0.0             0.0        50.43114        50.43114
         1        37       219             0.0             0.0        9.339865        9.339865
         1        38       219             0.0             0.0         49.9217         49.9217
         1        39       219             0.0             0.0         49.9217         49.9217
         1        40       219             0.0             0.0       58.751186       58.751186
         1        41       218             0.0             0.0        32.17539        32.17539
         1        42       218             0.0             0.0        50.16665        50.16665
         1        43       218             0.0             0.0       50.387558       50.387558
         1        46       217             0.0             0.0        44.28642        44.28642
         1        47       217             0.0             0.0        50.03052        50.03052
         1        48       217             0.0             0.0       28.055052       28.055052
         1        50       218             0.0             0.0       52.601513       52.601513
         1        51       218             0.0             0.0       28.899443       28.899443
         1        56       219             0.0             0.0       49.890564       49.890564
         1        57       219             0.0             0.0       49.890564       49.890564
         1        58       219             0.0             0.0        49.98742        49.98742
         1        64       218             0.0             0.0       21.315147       21.315147
         1        65       218             0.0             0.0        50.56316        50.56316
         1        66       218             0.0             0.0        50.56316        50.56316
         1        67       218             0.0             0.0        50.73951        50.73951
         1        69       217             0.0             0.0      13.6992035      13.6992035
         1        70       217             0.0             0.0       51.964077       51.964077
         1        72       216             0.0             0.0      12.7089815      12.7089815
         1        73       216             0.0             0.0       53.152306       53.152306
         1        78       215             0.0             0.0       37.424023       37.424023
         1        79       215             0.0             0.0       50.418022       50.418022
         1        80       215             0.0             0.0       50.418022       50.418022
         1        81       215             0.0             0.0        50.58134        50.58134
         1        84       214             0.0             0.0       13.104543       13.104543
         1        85       214             0.0             0.0        51.04527        51.04527
         1        86       214             0.0             0.0        50.09028        50.09028
         1        87       214             0.0             0.0        50.54626        50.54626
         1        90       213             0.0             0.0        6.351183        6.351183
         1        91       213             0.0             0.0       50.565063       50.565063
         1        92       213             0.0             0.0        50.49475        50.49475
         1        93       213             0.0             0.0       50.435143       50.435143
         1        96       212             0.0             0.0       1.3224031       1.3224031
         1        97       212             0.0             0.0       51.280224       51.280224
         1        98       212             0.0             0.0       51.280224       51.280224
         1       101       211             0.0             0.0        46.76005        46.76005
         1       102       211             0.0             0.0       52.213783       52.213783
         1       104       210             0.0             0.0       35.876553       35.876553
         1       105       210             0.0             0.0       51.869144       51.869144
         1       107       209             0.0             0.0        1.959514        1.959514
         1       108       209             0.0             0.0       51.441246       51.441246
         1       109       209             0.0             0.0        51.45584        51.45584
         1       111       208             0.0             0.0         8.96584         8.96584
         1       112       208             0.0             0.0       51.542316       51.542316
         1       113       208             0.0             0.0        51.47838        51.47838
         1       115       207             0.0             0.0       4.6455584       4.6455584
         1       116       207             0.0             0.0       51.123795       51.123795
         1       117       207             0.0             0.0       51.172543       51.172543
         1       120       206             0.0             0.0        49.69817        49.69817
         1       122       205             0.0             0.0       16.695818       16.695818
         1       123       205             0.0             0.0       51.523697       51.523697
         1       124       205             0.0             0.0       50.620716       50.620716
         1       131       204             0.0             0.0       2.9739664       2.9739664
         1       132       204             0.0             0.0         49.9806         49.9806
         1       133       204             0.0             0.0        49.87526        49.87526
         1       134       204             0.0             0.0       49.875217       49.875217
         1       135       204             0.0             0.0       49.943615       49.943615
         1       136       204             0.0             0.0        50.44245        50.44245
         1       137       204             0.0             0.0        50.62723        50.62723
         1       141       203             0.0             0.0       36.930023       36.930023
         1       142       203             0.0             0.0       58.008904       58.008904
         1       143       203             0.0             0.0       50.148365       50.148365
         1       148       202             0.0             0.0       2.8636587       2.8636587
         1       149       202             0.0             0.0       50.387592       50.387592
         1       150       202             0.0             0.0       50.218246       50.218246
         1       151       202             0.0             0.0       49.989143       49.989143
         1       152       202             0.0             0.0       49.989143       49.989143
         1       153       202             0.0             0.0       49.989143       49.989143
         1       164       201             0.0             0.0       15.873592       15.873592
         1       165       201             0.0             0.0        49.94802        49.94802
         1       166       201             0.0             0.0       50.017174       50.017174
         1       167       201             0.0             0.0        50.11319        50.11319
         1       168       201             0.0             0.0       50.136623       50.136623
         1       169       201             0.0             0.0         50.3761         50.3761
         1       173       200             0.0             0.0       44.248905       44.248905
         1       174       200             0.0             0.0        50.64185        50.64185
         1       175       200             0.0             0.0        50.64185        50.64185
         1       179       199             0.0             0.0       22.448858       22.448858
         1       180       199             0.0             0.0       50.464603       50.464603
         1       181       199             0.0             0.0        50.52268        50.52268
         1       182       199             0.0             0.0        50.42275        50.42275
         1       189       198             0.0             0.0        27.57906        27.57906
         1       190       198             0.0             0.0       49.990463       49.990463
         1       191       198             0.0             0.0       50.140182       50.140182
         1       192       198             0.0             0.0       50.140182       50.140182
         1       193       198             0.0             0.0       50.140182       50.140182
         1       194       198             0.0             0.0       50.141273       50.141273
         1       198       197             0.0             0.0        21.27242        21.27242
         1       199       197             0.0             0.0        50.20834        50.20834
         1       200       197             0.0             0.0       60.834484       60.834484
         1       203       197             0.0             0.0        45.90233        45.90233
         1       204       197             0.0             0.0        50.08009        50.08009
         1       205       197             0.0             0.0        50.08009        50.08009
         1       206       197             0.0             0.0        50.08009        50.08009
         1       207       197             0.0             0.0       50.030937       50.030937
         1       208       197             0.0             0.0        49.97392        49.97392
       115         0 # stress period 2
         1         8       222             0.0             0.0       49.869102       49.869102
         1         9       222             0.0             0.0       49.869102       49.869102
         1        10       222             0.0             0.0       49.869102       49.869102
         1        11       222             0.0             0.0       49.869102       49.869102
         1        12       222             0.0             0.0       49.916714       49.916714
         1        15       221             0.0             0.0       10.377119       10.377119
         1        16       221             0.0             0.0       51.293858       51.293858
         1        17       221             0.0             0.0       49.939613       49.939613
         1        18       221             0.0             0.0       49.888847       49.888847
         1        19       221             0.0             0.0       49.963837       49.963837
         1        24       220             0.0             0.0       43.266495       43.266495
         1        25       220             0.0             0.0         50.1937         50.1937
         1        26       220             0.0             0.0        49.86454        49.86454
         1        27       220             0.0             0.0        49.86454        49.86454
         1        28       220             0.0             0.0        49.86454        49.86454
         1        29       220             0.0             0.0        50.43114        50.43114
         1        37       219             0.0             0.0        9.339865        9.339865
         1        38       219             0.0             0.0         49.9217         49.9217
         1        39       219             0.0             0.0         49.9217         49.9217
         1        40       219             0.0             0.0       58.751186       58.751186
         1        41       218             0.0             0.0        32.17539        32.17539
         1        42       218             0.0             0.0        50.16665        50.16665
         1        43       218             0.0             0.0       50.387558       50.387558
         1        46       217             0.0             0.0        44.28642        44.28642
         1        47       217             0.0             0.0        50.03052        50.03052
         1        48       217             0.0             0.0       28.055052       28.055052
         1        50       218             0.0             0.0       52.601513       52.601513
         1        51       218             0.0             0.0       28.899443       28.899443
         1        56       219             0.0             0.0       49.890564       49.890564
         1        57       219             0.0             0.0       49.890564       49.890564
         1        58       219             0.0             0.0        49.98742        49.98742
         1        64       218             0.0             0.0       21.315147       21.315147
         1        65       218             0.0             0.0        50.56316        50.56316
         1        66       218             0.0             0.0        50.56316        50.56316
         1        67       218             0.0             0.0        50.73951        50.73951
         1        69       217             0.0             0.0      13.6992035      13.6992035
         1        70       217             0.0             0.0       51.964077       51.964077
         1        72       216             0.0             0.0      12.7089815      12.7089815
         1        73       216             0.0             0.0       53.152306       53.152306
         1        78       215             0.0             0.0       37.424023       37.424023
         1        79       215             0.0             0.0       50.418022       50.418022
         1        80       215             0.0             0.0       50.418022       50.418022
         1        81       215             0.0             0.0        50.58134        50.58134
         1        84       214             0.0             0.0       13.104543       13.104543
         1        85       214             0.0             0.0        51.04527        51.04527
         1        86       214             0.0             0.0        50.09028        50.09028
         1        87       214             0.0             0.0        50.54626        50.54626
         1        90       213             0.0             0.0        6.351183        6.351183
         1        91       213             0.0             0.0       50.565063       50.565063
         1        92       213             0.0             0.0        50.49475        50.49475
         1        93       213             0.0             0.0       50.435143       50.435143
         1        96       212             0.0             0.0       1.3224031       1.3224031
         1        97       212             0.0             0.0       51.280224       51.280224
         1        98       212             0.0             0.0       51.280224       51.280224
         1       101       211             0.0             0.0        46.76005        46.76005
         1       102       211             0.0             0.0       52.213783       52.213783
         1       104       210             0.0             0.0       35.876553       35.876553
         1       105       210             0.0             0.0       51.869144       51.869144
         1       107       209             0.0             0.0        1.959514        1.959514
         1       108       209             0.0             0.0       51.441246       51.441246
         1       109       209             0.0             0.0        51.45584        51.45584
         1       111       208             0.0             0.0         8.96584         8.96584
         1       112       208             0.0             0.0       51.542316       51.542316
         1       113       208             0.0             0.0        51.47838        51.47838
         1       115       207             0.0             0.0       4.6455584       4.6455584
         1       116       207             0.0             0.0       51.123795       51.123795
         1       117       207             0.0             0.0       51.172543       51.172543
         1       120       206             0.0             0.0        49.69817        49.69817
         1       122       205             0.0             0.0       16.695818       16.695818
         1       123       205             0.0             0.0       51.523697       51.523697
         1       124       205             0.0             0.0       50.620716       50.620716
         1       131       204             0.0             0.0       2.9739664       2.9739664
         1       132       204             0.0             0.0         49.9806         49.9806
         1       133       204             0.0             0.0        49.87526        49.87526
         1       134       204             0.0             0.0       49.875217       49.875217
         1       135       204             0.0             0.0       49.943615       49.943615
         1       136       204             0.0             0.0        50.44245        50.44245
         1       137       204             0.0             0.0        50.62723        50.62723
         1       141       203             0.0             0.0       36.930023       36.930023
         1       142       203             0.0             0.0       58.008904       58.008904
         1       143       203             0.0             0.0       50.148365       50.148365
         1       148       202             0.0             0.0       2.8636587       2.8636587
         1       149       202             0.0             0.0       50.387592       50.387592
         1       150       202             0.0             0.0       50.218246       50.218246
         1       151       202             0.0             0.0       49.989143       49.989143
         1       152       202             0.0             0.0       49.989143       49.989143
         1       153       202             0.0             0.0       49.989143       49.989143
         1       164       201             0.0             0.0       15.873592       15.873592
         1       165       201             0.0             0.0        49.94802        49.94802
         1       166       201             0.0             0.0       50.017174       50.017174
         1       167       201             0.0             0.0        50.11319        50.11319
         1       168       201             0.0             0.0       50.136623       50.136623
         1       169       201             0.0             0.0         50.3761         50.3761
         1       173       200             0.0             0.0       44.248905       44.248905
         1       174       200             0.0             0.0        50.64185        50.64185
         1       175       200             0.0             0.0        50.64185        50.64185
         1       179       199             0.0             0.0       22.448858       22.448858
         1       180       199             0.0             0.0       50.464603       50.464603
         1       181       199             0.0             0.0        50.52268        50.52268
         1       182       199             0.0             0.0        50.42275        50.42275
         1       189       198             0.0             0.0        27.57906        27.57906
         1       190       198             0.0             0.0       49.990463       49.990463
         1       191       198             0.0             0.0       50.140182       50.140182
         1       192       198             0.0             0.0       50.140182       50.140182
         1       193       198             0.0             0.0       50.140182       50.140182
         1       194       198             0.0             0.0       50.141273       50.141273
         1       198       197             0.0             0.0        21.27242        21.27242
         1       199       197             0.0             0.0        50.20834        50.20834
         1       200       197             0.0             0.0       60.834484       60.834484
         1       203       197             0.0             0.0        45.90233        45.90233
         1       204       197             0.0             0.0        50.08009        50.08009
         1       205       197             0.0             0.0        50.08009        50.08009
         1       206       197             0.0             0.0        50.08009        50.08009
         1       207       197             0.0             0.0       50.030937       50.030937
         1       208       197             0.0             0.0        49.97392        49.97392
       115         0 # stress period 3
         1         8       222             0.0             0.0       49.869102       49.869102
         1         9       222             0.0             0.0       49.869102       49.869102
         1        10       222             0.0             0.0       49.869102       49.869102
         1        11       222             0.0             0.0       49.869102       49.869102
         1        12       222             0.0             0.0       49.916714       49.916714
         1        15       221             0.0             0.0       10.377119       10.377119
         1        16       221             0.0             0.0       51.293858       51.293858
         1        17       221             0.0             0.0       49.939613       49.939613
         1        18       221             0.0             0.0       49.888847       49.888847
         1        19       221             0.0             0.0       49.963837       49.963837
         1        24       220             0.0             0.0       43.266495       43.266495
         1        25       220             0.0             0.0         50.1937         50.1937
         1        26       220             0.0             0.0        49.86454        49.86454
         1        27       220             0.0             0.0        49.86454        49.86454
         1        28       220             0.0             0.0        49.86454        49.86454
         1        29       220             0.0             0.0        50.43114        50.43114
         1        37       219             0.0             0.0        9.339865        9.339865
         1        38       219             0.0             0.0         49.9217         49.9217
         1        39       219             0.0             0.0         49.9217         49.9217
         1        40       219             0.0             0.0       58.751186       58.751186
         1        41       218             0.0             0.0        32.17539        32.17539
         1        42       218             0.0             0.0        50.16665        50.16665
         1        43       218             0.0             0.0       50.387558       50.387558
         1        46       217             0.0             0.0        44.28642        44.28642
         1        47       217             0.0             0.0        50.03052        50.03052
         1        48       217             0.0             0.0       28.055052       28.055052
         1        50       218             0.0             0.0       52.601513       52.601513
         1        51       218             0.0             0.0       28.899443       28.899443
         1        56       219             0.0             0.0       49.890564       49.890564
         1        57       219             0.0             0.0       49.890564       49.890564
         1        58       219             0.0             0.0        49.98742        49.98742
         1        64       218             0.0             0.0       21.315147       21.315147
         1        65       218             0.0             0.0        50.56316        50.56316
         1        66       218             0.0             0.0        50.56316        50.56316
         1        67       218             0.0             0.0        50.73951        50.73951
         1        69       217             0.0             0.0      13.6992035      13.6992035
         1        70       217             0.0             0.0       51.964077       51.964077
         1        72       216             0.0             0.0      12.7089815      12.7089815
         1        73       216             0.0             0.0       53.152306       53.152306
         1        78       215             0.0             0.0       37.424023       37.424023
         1        79       215             0.0             0.0       50.418022       50.418022
         1        80       215             0.0             0.0       50.418022       50.418022
         1        81       215             0.0             0.0        50.58134        50.58134
         1        84       214             0.0             0.0       13.104543       13.104543
         1        85       214             0.0             0.0        51.04527        51.04527
         1        86       214             0.0             0.0        50.09028        50.09028
         1        87       214             0.0             0.0        50.54626        50.54626
         1        90       213             0.0             0.0        6.351183        6.351183
         1        91       213             0.0             0.0       50.565063       50.565063
         1        92       213             0.0             0.0        50.49475        50.49475
         1        93       213             0.0             0.0       50.435143       50.435143
         1        96       212             0.0             0.0       1.3224031       1.3224031
         1        97       212             0.0             0.0       51.280224       51.280224
         1        98       212             0.0             0.0       51.280224       51.280224
         1       101       211             0.0             0.0        46.76005        46.76005
         1       102       211             0.0             0.0       52.213783       52.213783
         1       104       210             0.0             0.0       35.876553       35.876553
         1       105       210             0.0             0.0       51.869144       51.869144
         1       107       209             0.0             0.0        1.959514        1.959514
         1       108       209             0.0             0.0       51.441246       51.441246
         1       109       209             0.0             0.0        51.45584        51.45584
         1       111       208             0.0             0.0         8.96584         8.96584
         1       112       208             0.0             0.0       51.542316       51.542316
         1       113       208             0.0             0.0        51.47838        51.47838
         1       115       207             0.0             0.0       4.6455584       4.6455584
         1       116       207             0.0             0.0       51.123795       51.123795
         1       117       207             0.0             0.0       51.172543       51.172543
         1       120       206             0.0             0.0        49.69817        49.69817
         1       122       205             0.0             0.0       16.695818       16.695818
         1       123       205             0.0             0.0       51.523697       51.523697
         1       124       205             0.0             0.0       50.620716       50.620716
         1       131       204             0.0             0.0       2.9739664       2.9739664
         1       132       204             0.0             0.0         49.9806         49.9806
         1       133       204             0.0             0.0        49.87526        49.87526
         1       134       204             0.0             0.0       49.875217       49.875217
         1       135       204             0.0             0.0       49.943615       49.943615
         1       136       204             0.0             0.0        50.44245        50.44245
         1       137       204             0.0             0.0        50.62723        50.62723
         1       141       203             0.0             0.0       36.930023       36.930023
         1       142       203             0.0             0.0       58.008904       58.008904
         1       143       203             0.0             0.0       50.148365       50.148365
         1       148       202             0.0             0.0       2.8636587       2.8636587
         1       149       202             0.0             0.0       50.387592       50.387592