# Name file for MODFLOW-2005, generated by Flopy version 3.3.0.
#xll:0.0; yll:0.0; rotation:0.0; units:meters; lenuni:2; start_datetime:1-1-1970
LIST               2  UMONS_SmallModel_Transient_Sim2.list
DIS                9  UMONS_SmallModel_Transient_Sim2.dis
HOB               18  UMONS_SmallModel_Transient_Sim2.hob
CHOB               8  UMONS_SmallModel_Transient_Sim2.chob
DATA             140  UMONS_SmallModel_Transient_Sim2.obc
BAS6              10  UMONS_SmallModel_Transient_Sim2.ba6
LPF               11  UMONS_SmallModel_Transient_Sim2.lpf
OC                12  UMONS_SmallModel_Transient_Sim2.oc
RCH               13  UMONS_SmallModel_Transient_Sim2.rch
WEL               16  UMONS_SmallModel_Transient_Sim2.wel
CHD               14  UMONS_SmallModel_Transient_Sim2.chd
PCG               15  UMONS_SmallModel_Transient_Sim2.pcg
DATA              17  UMONS_SmallModel_Transient_Sim2.hob.out
DATA(BINARY)      40  UMONS_SmallModel_Transient_Sim2.cbc REPLACE
DATA(BINARY)       3  UMONS_SmallModel_Transient_Sim2.hds REPLACE
