# DIS package for  MODFLOW-2005, generated by Flopy.
         1       221       227        52         1         2
  0
INTERNAL               1     (FREE) -1 #delr                          
   4.979502E+01   4.979502E+01   4.979502E+01   4.979502E+01   4.979502E+01   4.979502E+01   4.979502E+01   4.979502E+01   4.979502E+01   4.979502E+01   4.979502E+01   4.979502E+01   4.979502E+01   4.979502E+01   4.979502E+01   4.979502E+01   4.979502E+01   4.979502E+01   4.979502E+01   4.979502E+01   4.979502E+01   4.979502E+01   4.979502E+01   4.979502E+01   4.979502E+01   4.979502E+01   4.979502E+01   4.979502E+01   4.979502E+01   4.979502E+01   4.979502E+01   4.979502E+01   4.979502E+01   4.979502E+01   4.979502E+01   4.979502E+01   4.979502E+01   4.979502E+01   4.979502E+01   4.979502E+01   4.979502E+01   4.979502E+01   4.979502E+01   4.979502E+01   4.979502E+01   4.979502E+01   4.979502E+01   4.979502E+01   4.979502E+01   4.979502E+01   4.979502E+01   4.979502E+01   4.979502E+01   4.979502E+01   4.979502E+01   4.979502E+01   4.979502E+01   4.979502E+01   4.979502E+01   4.979502E+01   4.979502E+01   4.979502E+01   4.979502E+01   4.979502E+01   4.979502E+01   4.979502E+01   4.979502E+01   4.979502E+01   4.979502E+01   4.979502E+01   4.979502E+01   4.979502E+01   4.979502E+01   4.979502E+01   4.979502E+01   4.979502E+01   4.979502E+01   4.979502E+01   4.979502E+01   4.979502E+01   4.979502E+01   4.979502E+01   4.979502E+01   4.979502E+01   4.979502E+01   4.979502E+01   4.979502E+01   4.979502E+01   4.979502E+01   4.979502E+01   4.979502E+01   4.979502E+01   4.979502E+01   4.979502E+01   4.979502E+01   4.979502E+01   4.979502E+01   4.979502E+01   4.979502E+01   4.979502E+01   4.979502E+01   4.979502E+01   4.979502E+01   4.979502E+01   4.979502E+01   4.979502E+01   4.979502E+01   4.979502E+01   4.979502E+01   4.979502E+01   4.979502E+01   4.979502E+01   4.979502E+01   4.979502E+01   4.979502E+01   4.979502E+01   4.979502E+01   4.979502E+01   4.979502E+01   4.979502E+01   4.979502E+01   4.979502E+01   4.979502E+01   4.979502E+01   4.979502E+01   4.979502E+01   4.979502E+01   4.979502E+01   4.979502E+01   4.979502E+01   4.979502E+01   4.979502E+01   4.979502E+01   4.979502E+01   4.979502E+01   4.979502E+01   4.979502E+01   4.979502E+01   4.979502E+01   4.979502E+01   4.979502E+01   4.979502E+01   4.979502E+01   4.979502E+01   4.979502E+01   4.979502E+01   4.979502E+01   4.979502E+01   4.979502E+01   4.979502E+01   4.979502E+01   4.979502E+01   4.979502E+01   4.979502E+01   4.979502E+01   4.979502E+01   4.979502E+01   4.979502E+01   4.979502E+01   4.979502E+01   4.979502E+01   4.979502E+01   4.979502E+01   4.979502E+01   4.979502E+01   4.979502E+01   4.979502E+01   4.979502E+01   4.979502E+01   4.979502E+01   4.979502E+01   4.979502E+01   4.979502E+01   4.979502E+01   4.979502E+01   4.979502E+01   4.979502E+01   4.979502E+01   4.979502E+01   4.979502E+01   4.979502E+01   4.979502E+01   4.979502E+01   4.979502E+01   4.979502E+01   4.979502E+01   4.979502E+01   4.979502E+01   4.979502E+01   4.979502E+01   4.979502E+01   4.979502E+01   4.979502E+01   4.979502E+01   4.979502E+01   4.979502E+01   4.979502E+01   4.979502E+01   4.979502E+01   4.979502E+01   4.979502E+01   4.979502E+01   4.979502E+01   4.979502E+01   4.979502E+01   4.979502E+01   4.979502E+01   4.979502E+01   4.979502E+01   4.979502E+01   4.979502E+01   4.979502E+01   4.979502E+01   4.979502E+01   4.979502E+01   4.979502E+01   4.979502E+01   4.979502E+01   4.979502E+01   4.979502E+01   4.979502E+01   4.979502E+01   4.979502E+01   4.979502E+01   4.979502E+01   4.979502E+01   4.979502E+01
INTERNAL               1     (FREE) -1 #delc                          
   4.985387E+01   4.985387E+01   4.985387E+01   4.985387E+01   4.985387E+01   4.985387E+01   4.985387E+01   4.985387E+01   4.985387E+01   4.985387E+01   4.985387E+01   4.985387E+01   4.985387E+01   4.985387E+01   4.985387E+01   4.985387E+01   4.985387E+01   4.985387E+01   4.985387E+01   4.985387E+01   4.985387E+01   4.985387E+01   4.985387E+01   4.985387E+01   4.985387E+01   4.985387E+01   4.985387E+01   4.985387E+01   4.985387E+01   4.985387E+01   4.985387E+01   4.985387E+01   4.985387E+01   4.985387E+01   4.985387E+01   4.985387E+01   4.985387E+01   4.985387E+01   4.985387E+01   4.985387E+01   4.985387E+01   4.985387E+01   4.985387E+01   4.985387E+01   4.985387E+01   4.985387E+01   4.985387E+01   4.985387E+01   4.985387E+01   4.985387E+01   4.985387E+01   4.985387E+01   4.985387E+01   4.985387E+01   4.985387E+01   4.985387E+01   4.985387E+01   4.985387E+01   4.985387E+01   4.985387E+01   4.985387E+01   4.985387E+01   4.985387E+01   4.985387E+01   4.985387E+01   4.985387E+01   4.985387E+01   4.985387E+01   4.985387E+01   4.985387E+01   4.985387E+01   4.985387E+01   4.985387E+01   4.985387E+01   4.985387E+01   4.985387E+01   4.985387E+01   4.985387E+01   4.985387E+01   4.985387E+01   4.985387E+01   4.985387E+01   4.985387E+01   4.985387E+01   4.985387E+01   4.985387E+01   4.985387E+01   4.985387E+01   4.985387E+01   4.985387E+01   4.985387E+01   4.985387E+01   4.985387E+01   4.985387E+01   4.985387E+01   4.985387E+01   4.985387E+01   4.985387E+01   4.985387E+01   4.985387E+01   4.985387E+01   4.985387E+01   4.985387E+01   4.985387E+01   4.985387E+01   4.985387E+01   4.985387E+01   4.985387E+01   4.985387E+01   4.985387E+01   4.985387E+01   4.985387E+01   4.985387E+01   4.985387E+01   4.985387E+01   4.985387E+01   4.985387E+01   4.985387E+01   4.985387E+01   4.985387E+01   4.985387E+01   4.985387E+01   4.985387E+01   4.985387E+01   4.985387E+01   4.985387E+01   4.985387E+01   4.985387E+01   4.985387E+01   4.985387E+01   4.985387E+01   4.985387E+01   4.985387E+01   4.985387E+01   4.985387E+01   4.985387E+01   4.985387E+01   4.985387E+01   4.985387E+01   4.985387E+01   4.985387E+01   4.985387E+01   4.985387E+01   4.985387E+01   4.985387E+01   4.985387E+01   4.985387E+01   4.985387E+01   4.985387E+01   4.985387E+01   4.985387E+01   4.985387E+01   4.985387E+01   4.985387E+01   4.985387E+01   4.985387E+01   4.985387E+01   4.985387E+01   4.985387E+01   4.985387E+01   4.985387E+01   4.985387E+01   4.985387E+01   4.985387E+01   4.985387E+01   4.985387E+01   4.985387E+01   4.985387E+01   4.985387E+01   4.985387E+01   4.985387E+01   4.985387E+01   4.985387E+01   4.985387E+01   4.985387E+01   4.985387E+01   4.985387E+01   4.985387E+01   4.985387E+01   4.985387E+01   4.985387E+01   4.985387E+01   4.985387E+01   4.985387E+01   4.985387E+01   4.985387E+01   4.985387E+01   4.985387E+01   4.985387E+01   4.985387E+01   4.985387E+01   4.985387E+01   4.985387E+01   4.985387E+01   4.985387E+01   4.985387E+01   4.985387E+01   4.985387E+01   4.985387E+01   4.985387E+01   4.985387E+01   4.985387E+01   4.985387E+01   4.985387E+01   4.985387E+01   4.985387E+01   4.985387E+01   4.985387E+01   4.985387E+01   4.985387E+01   4.985387E+01   4.985387E+01   4.985387E+01   4.985387E+01   4.985387E+01   4.985387E+01   4.985387E+01   4.985387E+01   4.985387E+01   4.985387E+01   4.985387E+01
INTERNAL               1     (FREE) -1 #model_top                     
   1.757522E+01   1.733294E+01   1.711484E+01   1.691134E+01   1.672261E+01   1.655514E+01   1.640414E+01   1.626766E+01   1.614542E+01   1.603295E+01   1.592756E+01   1.582527E+01   1.572296E+01   1.562507E+01   1.553532E+01   1.544705E+01   1.536175E+01   1.528395E+01   1.521496E+01   1.514840E+01   1.508732E+01   1.502453E+01   1.495234E+01   1.487897E+01   1.481007E+01   1.473213E+01   1.464746E+01   1.456299E+01   1.448011E+01   1.438917E+01   1.429527E+01   1.419102E+01   1.407254E+01   1.395076E+01   1.383189E+01   1.371375E+01   1.360116E+01   1.349643E+01   1.339778E+01   1.330226E+01   1.320754E+01   1.311271E+01   1.301974E+01   1.292876E+01   1.283992E+01   1.275729E+01   1.268136E+01   1.261039E+01   1.254282E+01   1.247917E+01   1.241620E+01   1.235460E+01   1.229603E+01   1.223901E+01   1.218404E+01   1.213244E+01   1.208360E+01   1.203773E+01   1.199568E+01   1.195457E+01   1.191583E+01   1.187775E+01   1.183809E+01   1.179891E+01   1.176243E+01   1.172644E+01   1.169068E+01   1.165775E+01   1.162968E+01   1.160037E+01   1.157430E+01   1.154781E+01   1.151653E+01   1.148326E+01   1.145038E+01   1.141371E+01   1.137222E+01   1.132903E+01   1.128579E+01   1.123512E+01   1.118128E+01   1.112042E+01   1.105151E+01   1.097848E+01   1.090319E+01   1.082793E+01   1.075593E+01   1.068606E+01   1.061434E+01   1.054529E+01   1.047021E+01   1.039138E+01   1.031534E+01   1.024021E+01   1.016316E+01   1.009193E+01   1.003086E+01   9.973448E+00   9.913325E+00   9.862810E+00   9.807428E+00   9.752594E+00   9.702687E+00   9.652709E+00   9.599236E+00   9.544440E+00   9.487528E+00   9.424620E+00   9.356191E+00   9.279935E+00   9.194835E+00   9.100661E+00   8.998146E+00   8.889650E+00   8.777467E+00   8.664677E+00   8.553255E+00   8.444180E+00   8.338870E+00   8.230422E+00   8.120327E+00   8.008176E+00   7.894301E+00   7.779151E+00   7.663799E+00   7.551420E+00   7.447899E+00   7.346809E+00   7.251958E+00   7.162706E+00   7.075872E+00   6.992285E+00   6.912445E+00   6.834618E+00   6.765038E+00   6.700576E+00   6.643024E+00   6.594470E+00   6.553455E+00   6.519931E+00   6.494171E+00   6.475806E+00   6.464181E+00   6.459617E+00   6.460856E+00   6.467163E+00   6.481448E+00   6.506156E+00   6.532100E+00   6.564075E+00   6.602654E+00   6.646603E+00   6.697088E+00   6.757571E+00   6.819912E+00   6.884693E+00   6.951304E+00   7.017386E+00   7.080099E+00   7.137179E+00   7.186525E+00   7.225343E+00   7.254103E+00   7.269177E+00   7.272672E+00   7.256244E+00   7.228570E+00   7.203482E+00   7.118891E+00   7.058238E+00   6.944551E+00   6.835573E+00   6.679771E+00   6.526832E+00   6.326931E+00   6.128188E+00   5.889046E+00   5.650658E+00   5.385017E+00   5.120479E+00   4.843780E+00   4.567975E+00   4.292214E+00   4.016645E+00   3.749002E+00   3.481287E+00   3.226245E+00   2.971800E+00   2.733032E+00   2.495757E+00   2.276288E+00   2.058780E+00   1.861850E+00   1.667599E+00   1.497834E+00   1.332106E+00   1.194290E+00   1.062009E+00   9.584618E-01   8.610689E-01   7.893196E-01   7.231596E-01   6.770684E-01   6.353117E-01   6.072649E-01   5.821825E-01   5.646284E-01   5.503738E-01   5.354870E-01   5.217599E-01   5.080256E-01   4.936567E-01   4.783412E-01   4.617404E-01   4.439790E-01   4.248875E-01   4.065923E-01   3.878966E-01   3.699252E-01   3.540298E-01   3.432411E-01   3.349993E-01   3.256858E-01   3.179013E-01   3.119646E-01   3.077041E-01   3.049147E-01
   1.752738E+01   1.729157E+01   1.707750E+01   1.687441E+01   1.668771E+01   1.652257E+01   1.637495E+01   1.624384E+01   1.612688E+01   1.601909E+01   1.591599E+01   1.581624E+01   1.571361E+01   1.561645E+01   1.552680E+01   1.543806E+01   1.535575E+01   1.528144E+01   1.521390E+01   1.515222E+01   1.509165E+01   1.503195E+01   1.495974E+01   1.489056E+01   1.482378E+01   1.474633E+01   1.466616E+01   1.458564E+01   1.450193E+01   1.441455E+01   1.431684E+01   1.420899E+01   1.408254E+01   1.395500E+01   1.382885E+01   1.370520E+01   1.359068E+01   1.348593E+01   1.338842E+01   1.329438E+01   1.320080E+01   1.310584E+01   1.301186E+01   1.291810E+01   1.282716E+01   1.274399E+01   1.266804E+01   1.259810E+01   1.253333E+01   1.247087E+01   1.240994E+01   1.234936E+01   1.229102E+01   1.223326E+01   1.217803E+01   1.212644E+01   1.207814E+01   1.203357E+01   1.199198E+01   1.195302E+01   1.191459E+01   1.187672E+01   1.183619E+01   1.179722E+01   1.175992E+01   1.172321E+01   1.168801E+01   1.165659E+01   1.162755E+01   1.160195E+01   1.157633E+01   1.155099E+01   1.152014E+01   1.148933E+01   1.145715E+01   1.142140E+01   1.138176E+01   1.134104E+01   1.129668E+01   1.124930E+01   1.119440E+01   1.113185E+01   1.105969E+01   1.098285E+01   1.090357E+01   1.082551E+01   1.075197E+01   1.068119E+01   1.061288E+01   1.054162E+01   1.046779E+01   1.038813E+01   1.031036E+01   1.022994E+01   1.015074E+01   1.007737E+01   1.001522E+01   9.956572E+00   9.904168E+00   9.850550E+00   9.799868E+00   9.748381E+00   9.701891E+00   9.653735E+00   9.603986E+00   9.552299E+00   9.498462E+00   9.439139E+00   9.373322E+00   9.298738E+00   9.213849E+00   9.117879E+00   9.011335E+00   8.897340E+00   8.779697E+00   8.662970E+00   8.549739E+00   8.442606E+00   8.339457E+00   8.233072E+00   8.124094E+00   8.012266E+00   7.896523E+00   7.778825E+00   7.662130E+00   7.547959E+00   7.443394E+00   7.343199E+00   7.250295E+00   7.163312E+00   7.077386E+00   6.994041E+00   6.913543E+00   6.833844E+00   6.761516E+00   6.696607E+00   6.637120E+00   6.588528E+00   6.547122E+00   6.513263E+00   6.485931E+00   6.466666E+00   6.453619E+00   6.447973E+00   6.449008E+00   6.456199E+00   6.468408E+00   6.492607E+00   6.518267E+00   6.546496E+00   6.583802E+00   6.632185E+00   6.678049E+00   6.740334E+00   6.805655E+00   6.874472E+00   6.946512E+00   7.016991E+00   7.084360E+00   7.145967E+00   7.197600E+00   7.240960E+00   7.270471E+00   7.288414E+00   7.290468E+00   7.276600E+00   7.247055E+00   7.211544E+00   7.137190E+00   7.067933E+00   6.956948E+00   6.848924E+00   6.695572E+00   6.542717E+00   6.343232E+00   6.142407E+00   5.901301E+00   5.659173E+00   5.390520E+00   5.122353E+00   4.843310E+00   4.565455E+00   4.288714E+00   4.012708E+00   3.744830E+00   3.477327E+00   3.222007E+00   2.967749E+00   2.728464E+00   2.491207E+00   2.270912E+00   2.053059E+00   1.854732E+00   1.659624E+00   1.488100E+00   1.321569E+00   1.182562E+00   1.050422E+00   9.468843E-01   8.507330E-01   7.799490E-01   7.155628E-01   6.707352E-01   6.306590E-01   6.037430E-01   5.799565E-01   5.633070E-01   5.488499E-01   5.355246E-01   5.228918E-01   5.098347E-01   4.957720E-01   4.803890E-01   4.633586E-01   4.446829E-01   4.248838E-01   4.044314E-01   3.839980E-01   3.646955E-01   3.504439E-01   3.389930E-01   3.265337E-01   3.164149E-01   3.086183E-01   3.029705E-01   2.992226E-01   2.970957E-01
   1.748543E+01   1.725793E+01   1.704414E+01   1.684030E+01   1.665392E+01   1.648922E+01   1.634568E+01   1.621933E+01   1.610813E+01   1.600707E+01   1.590699E+01   1.580902E+01   1.570693E+01   1.560837E+01   1.551550E+01   1.542814E+01   1.534964E+01   1.527619E+01   1.521233E+01   1.515678E+01   1.509729E+01   1.503925E+01   1.497044E+01   1.490253E+01   1.483345E+01   1.476143E+01   1.468790E+01   1.460841E+01   1.452814E+01   1.444509E+01   1.434380E+01   1.423024E+01   1.409658E+01   1.395866E+01   1.382159E+01   1.369296E+01   1.357668E+01   1.347267E+01   1.337777E+01   1.328647E+01   1.319504E+01   1.310039E+01   1.300420E+01   1.290723E+01   1.281447E+01   1.272896E+01   1.265278E+01   1.258516E+01   1.252297E+01   1.246291E+01   1.240448E+01   1.234521E+01   1.228642E+01   1.222781E+01   1.217178E+01   1.211989E+01   1.207251E+01   1.202915E+01   1.198926E+01   1.195226E+01   1.191458E+01   1.187665E+01   1.183585E+01   1.179555E+01   1.175568E+01   1.171928E+01   1.168525E+01   1.165442E+01   1.162696E+01   1.160350E+01   1.157899E+01   1.155436E+01   1.152521E+01   1.149525E+01   1.146231E+01   1.142904E+01   1.139247E+01   1.135353E+01   1.131129E+01   1.126557E+01   1.121019E+01   1.114520E+01   1.106913E+01   1.098687E+01   1.090268E+01   1.082077E+01   1.074513E+01   1.067495E+01   1.060799E+01   1.053811E+01   1.046555E+01   1.038609E+01   1.030497E+01   1.021915E+01   1.013773E+01   1.005998E+01   9.994555E+00   9.936931E+00   9.886539E+00   9.836002E+00   9.789738E+00   9.743374E+00   9.700318E+00   9.654466E+00   9.608712E+00   9.560190E+00   9.509748E+00   9.454414E+00   9.392315E+00   9.320459E+00   9.236178E+00   9.137938E+00   9.026082E+00   8.904679E+00   8.779667E+00   8.658624E+00   8.543259E+00   8.438541E+00   8.337279E+00   8.234971E+00   8.129012E+00   8.017914E+00   7.899784E+00   7.778407E+00   7.659007E+00   7.542508E+00   7.436820E+00   7.338295E+00   7.248511E+00   7.164765E+00   7.081068E+00   6.997105E+00   6.914798E+00   6.833071E+00   6.758373E+00   6.690776E+00   6.631114E+00   6.582394E+00   6.541273E+00   6.507203E+00   6.477705E+00   6.457259E+00   6.443212E+00   6.436461E+00   6.436882E+00   6.444117E+00   6.457325E+00   6.478013E+00   6.503840E+00   6.530967E+00   6.563895E+00   6.612421E+00   6.661028E+00   6.721508E+00   6.792086E+00   6.862710E+00   6.940598E+00   7.016479E+00   7.089294E+00   7.155281E+00   7.211375E+00   7.257885E+00   7.289485E+00   7.308378E+00   7.309150E+00   7.296671E+00   7.267053E+00   7.220482E+00   7.158288E+00   7.078799E+00   6.981988E+00   6.864696E+00   6.725994E+00   6.562231E+00   6.373988E+00   6.160081E+00   5.924508E+00   5.669574E+00   5.401553E+00   5.124293E+00   4.843547E+00   4.562038E+00   4.283194E+00   4.007792E+00   3.737466E+00   3.472321E+00   3.213812E+00   2.962297E+00   2.719360E+00   2.485003E+00   2.260436E+00   2.045456E+00   1.841379E+00   1.648969E+00   1.470331E+00   1.307154E+00   1.161450E+00   1.034386E+00   9.263038E-01   8.364112E-01   7.633139E-01   7.049544E-01   6.592715E-01   6.239905E-01   5.971609E-01   5.766413E-01   5.607915E-01   5.476145E-01   5.359293E-01   5.243254E-01   5.119625E-01   4.983653E-01   4.829432E-01   4.655941E-01   4.460453E-01   4.247806E-01   4.024249E-01   3.798703E-01   3.615718E-01   3.457582E-01   3.296256E-01   3.162678E-01   3.058120E-01   2.981446E-01   2.929872E-01   2.908132E-01   2.928939E-01
   1.745045E+01   1.723281E+01   1.701681E+01   1.680896E+01   1.661914E+01   1.645430E+01   1.631407E+01   1.619524E+01   1.609203E+01   1.599570E+01   1.590251E+01   1.580402E+01   1.570235E+01   1.560074E+01   1.550396E+01   1.541763E+01   1.533984E+01   1.527179E+01   1.521411E+01   1.515790E+01   1.510622E+01   1.504657E+01   1.498178E+01   1.491454E+01   1.484530E+01   1.477820E+01   1.470807E+01   1.463519E+01   1.456283E+01   1.447577E+01   1.437893E+01   1.425600E+01   1.411303E+01   1.396131E+01   1.381167E+01   1.367583E+01   1.355763E+01   1.345616E+01   1.336566E+01   1.327959E+01   1.319092E+01   1.309710E+01   1.299787E+01   1.289624E+01   1.279919E+01   1.271145E+01   1.263585E+01   1.257109E+01   1.251179E+01   1.245669E+01   1.240023E+01   1.234261E+01   1.228296E+01   1.222267E+01   1.216501E+01   1.211253E+01   1.206597E+01   1.202406E+01   1.198748E+01   1.195099E+01   1.191632E+01   1.187789E+01   1.183629E+01   1.179391E+01   1.175224E+01   1.171451E+01   1.168101E+01   1.165033E+01   1.162683E+01   1.160248E+01   1.158239E+01   1.155807E+01   1.153042E+01   1.150091E+01   1.146883E+01   1.143642E+01   1.140273E+01   1.136484E+01   1.132822E+01   1.128153E+01   1.122914E+01   1.116106E+01   1.107998E+01   1.099037E+01   1.089910E+01   1.081283E+01   1.073538E+01   1.066837E+01   1.060183E+01   1.053858E+01   1.046462E+01   1.038601E+01   1.029995E+01   1.020803E+01   1.012003E+01   1.003908E+01   9.970330E+00   9.918767E+00   9.865244E+00   9.824944E+00   9.777811E+00   9.737628E+00   9.697377E+00   9.654871E+00   9.612254E+00   9.567835E+00   9.521435E+00   9.471183E+00   9.413605E+00   9.345666E+00   9.262683E+00   9.161689E+00   9.042977E+00   8.911567E+00   8.776575E+00   8.649196E+00   8.533281E+00   8.429113E+00   8.332904E+00   8.236647E+00   8.135487E+00   8.025449E+00   7.904714E+00   7.777975E+00   7.652928E+00   7.534342E+00   7.427474E+00   7.331707E+00   7.246639E+00   7.167466E+00   7.086988E+00   7.002050E+00   6.917131E+00   6.832170E+00   6.753732E+00   6.683958E+00   6.624584E+00   6.576574E+00   6.535980E+00   6.501802E+00   6.470050E+00   6.447903E+00   6.432872E+00   6.424996E+00   6.424991E+00   6.432146E+00   6.445543E+00   6.464264E+00   6.488123E+00   6.515134E+00   6.544805E+00   6.589286E+00   6.639521E+00   6.700103E+00   6.773671E+00   6.850390E+00   6.933514E+00   7.015941E+00   7.094945E+00   7.164847E+00   7.226758E+00   7.273961E+00   7.309867E+00   7.328912E+00   7.330114E+00   7.316186E+00   7.286086E+00   7.238433E+00   7.177629E+00   7.099602E+00   7.007083E+00   6.893179E+00   6.759044E+00   6.596451E+00   6.408588E+00   6.190641E+00   5.950180E+00   5.687604E+00   5.412436E+00   5.128019E+00   4.841844E+00   4.556811E+00   4.275887E+00   4.000101E+00   3.729220E+00   3.464233E+00   3.204823E+00   2.953182E+00   2.709125E+00   2.474725E+00   2.248955E+00   2.033318E+00   1.826814E+00   1.632177E+00   1.449911E+00   1.284290E+00   1.136305E+00   1.009109E+00   9.017060E-01   8.141475E-01   7.437487E-01   6.886557E-01   6.460165E-01   6.137745E-01   5.895948E-01   5.716152E-01   5.578986E-01   5.467039E-01   5.364768E-01   5.260407E-01   5.144975E-01   5.014468E-01   4.862001E-01   4.686509E-01   4.484002E-01   4.253471E-01   4.007182E-01   3.780444E-01   3.572213E-01   3.364256E-01   3.186053E-01   3.042936E-01   2.935997E-01   2.862896E-01   2.842312E-01   2.855766E-01   2.831538E-01
   1.742808E+01   1.721604E+01   1.699658E+01   1.678009E+01   1.658285E+01   1.641577E+01   1.627983E+01   1.617085E+01   1.607783E+01   1.598901E+01   1.590088E+01   1.580530E+01   1.570035E+01   1.559336E+01   1.549247E+01   1.540347E+01   1.532828E+01   1.526862E+01   1.521686E+01   1.516341E+01   1.511352E+01   1.505811E+01   1.499367E+01   1.492610E+01   1.485852E+01   1.479287E+01   1.472891E+01   1.466905E+01   1.460379E+01   1.451752E+01   1.441749E+01   1.428935E+01   1.413245E+01   1.396240E+01   1.379697E+01   1.365192E+01   1.353275E+01   1.343563E+01   1.335211E+01   1.327348E+01   1.319009E+01   1.309696E+01   1.299360E+01   1.288519E+01   1.278166E+01   1.269124E+01   1.261662E+01   1.255440E+01   1.250031E+01   1.245071E+01   1.239853E+01   1.234207E+01   1.228097E+01   1.221783E+01   1.215748E+01   1.210388E+01   1.205807E+01   1.201968E+01   1.198646E+01   1.195236E+01   1.191866E+01   1.188087E+01   1.183774E+01   1.179225E+01   1.174790E+01   1.170849E+01   1.167469E+01   1.164778E+01   1.162669E+01   1.160408E+01   1.158448E+01   1.156231E+01   1.153569E+01   1.150613E+01   1.147459E+01   1.144334E+01   1.141131E+01   1.137972E+01   1.134707E+01   1.130255E+01   1.124979E+01   1.118015E+01   1.109257E+01   1.099319E+01   1.089248E+01   1.080041E+01   1.072274E+01   1.065637E+01   1.059446E+01   1.053683E+01   1.046877E+01   1.038840E+01   1.029703E+01   1.019688E+01   1.009983E+01   1.001305E+01   9.945067E+00   9.889856E+00   9.840151E+00   9.806059E+00   9.768423E+00   9.730410E+00   9.694165E+00   9.654962E+00   9.615281E+00   9.574633E+00   9.533426E+00   9.488536E+00   9.437349E+00   9.374429E+00   9.294181E+00   9.190344E+00   9.062691E+00   8.917875E+00   8.770144E+00   8.633408E+00   8.515988E+00   8.414707E+00   8.326135E+00   8.238471E+00   8.144160E+00   8.036501E+00   7.913018E+00   7.777639E+00   7.644185E+00   7.521739E+00   7.413888E+00   7.323020E+00   7.244753E+00   7.171943E+00   7.095990E+00   7.010795E+00   6.920926E+00   6.830890E+00   6.747515E+00   6.676456E+00   6.618006E+00   6.571171E+00   6.532233E+00   6.496606E+00   6.463984E+00   6.439276E+00   6.421991E+00   6.413339E+00   6.413217E+00   6.420851E+00   6.434394E+00   6.452105E+00   6.473195E+00   6.497216E+00   6.526168E+00   6.563794E+00   6.612577E+00   6.676337E+00   6.752015E+00   6.836403E+00   6.925524E+00   7.015659E+00   7.101166E+00   7.177416E+00   7.243585E+00   7.294063E+00   7.330884E+00   7.348411E+00   7.350973E+00   7.336346E+00   7.301912E+00   7.255332E+00   7.192975E+00   7.119041E+00   7.029022E+00   6.922972E+00   6.791852E+00   6.634960E+00   6.444512E+00   6.225175E+00   5.975919E+00   5.706633E+00   5.421283E+00   5.129943E+00   4.837336E+00   4.549364E+00   4.267401E+00   3.991926E+00   3.721758E+00   3.456546E+00   3.196694E+00   2.943810E+00   2.699270E+00   2.464268E+00   2.238702E+00   2.022074E+00   1.814278E+00   1.616034E+00   1.430467E+00   1.260548E+00   1.110878E+00   9.825588E-01   8.770252E-01   7.917020E-01   7.250087E-01   6.731279E-01   6.339750E-01   6.044947E-01   5.829457E-01   5.671881E-01   5.554216E-01   5.460026E-01   5.371431E-01   5.277530E-01   5.172427E-01   5.047427E-01   4.901527E-01   4.726270E-01   4.516645E-01   4.269124E-01   4.010671E-01   3.753533E-01   3.491060E-01   3.253776E-01   3.055020E-01   2.901749E-01   2.800551E-01   2.765106E-01   2.766037E-01   2.741915E-01   2.705724E-01
   1.741791E+01   1.721131E+01   1.698440E+01   1.675309E+01   1.654275E+01   1.637282E+01   1.624302E+01   1.614612E+01   1.606640E+01   1.598793E+01   1.590624E+01   1.580877E+01   1.570137E+01   1.558591E+01   1.547643E+01   1.538744E+01   1.531668E+01   1.526527E+01   1.522109E+01   1.517253E+01   1.512571E+01   1.506689E+01   1.500594E+01   1.493657E+01   1.486673E+01   1.480815E+01   1.475391E+01   1.470698E+01   1.465141E+01   1.456892E+01   1.446791E+01   1.432597E+01   1.415543E+01   1.396125E+01   1.377501E+01   1.362009E+01   1.350110E+01   1.341066E+01   1.333735E+01   1.326904E+01   1.319272E+01   1.310136E+01   1.299217E+01   1.287414E+01   1.276230E+01   1.266727E+01   1.259355E+01   1.253580E+01   1.248873E+01   1.244607E+01   1.239893E+01   1.234422E+01   1.228084E+01   1.221322E+01   1.214867E+01   1.209352E+01   1.204939E+01   1.201509E+01   1.198640E+01   1.195598E+01   1.192417E+01   1.188463E+01   1.184048E+01   1.179051E+01   1.174182E+01   1.170076E+01   1.166826E+01   1.164470E+01   1.162672E+01   1.160701E+01   1.158877E+01   1.156595E+01   1.154107E+01   1.151074E+01   1.147862E+01   1.144871E+01   1.142077E+01   1.139505E+01   1.136762E+01   1.132747E+01   1.127557E+01   1.120228E+01   1.110745E+01   1.099520E+01   1.088231E+01   1.078317E+01   1.070396E+01   1.064060E+01   1.058561E+01   1.053537E+01   1.047399E+01   1.039648E+01   1.029720E+01   1.018610E+01   1.007765E+01   9.983836E+00   9.911273E+00   9.855673E+00   9.811076E+00   9.783755E+00   9.755047E+00   9.725344E+00   9.691029E+00   9.654829E+00   9.617774E+00   9.580906E+00   9.544287E+00   9.506205E+00   9.463113E+00   9.406673E+00   9.330429E+00   9.224132E+00   9.086040E+00   8.923538E+00   8.757948E+00   8.610987E+00   8.492060E+00   8.394643E+00   8.316727E+00   8.240762E+00   8.156101E+00   8.052124E+00   7.923567E+00   7.777582E+00   7.632843E+00   7.503780E+00   7.396100E+00   7.311903E+00   7.242969E+00   7.178870E+00   7.108065E+00   7.023583E+00   6.927057E+00   6.828825E+00   6.738907E+00   6.666409E+00   6.610276E+00   6.567253E+00   6.530191E+00   6.493922E+00   6.459839E+00   6.430714E+00   6.410765E+00   6.400334E+00   6.401116E+00   6.410246E+00   6.423874E+00   6.442177E+00   6.460653E+00   6.480111E+00   6.503455E+00   6.535607E+00   6.583375E+00   6.649835E+00   6.726511E+00   6.818498E+00   6.916784E+00   7.016082E+00   7.108451E+00   7.192000E+00   7.259715E+00   7.315781E+00   7.353850E+00   7.372305E+00   7.373859E+00   7.356696E+00   7.319187E+00   7.269962E+00   7.206187E+00   7.135209E+00   7.049947E+00   6.952765E+00   6.828214E+00   6.677642E+00   6.486030E+00   6.263370E+00   6.004537E+00   5.725634E+00   5.429171E+00   5.128636E+00   4.829823E+00   4.538669E+00   4.257786E+00   3.983581E+00   3.715633E+00   3.449769E+00   3.189235E+00   2.933752E+00   2.688839E+00   2.453073E+00   2.229150E+00   2.011997E+00   1.803703E+00   1.600617E+00   1.411044E+00   1.234656E+00   1.083390E+00   9.528608E-01   8.509163E-01   7.675445E-01   7.064092E-01   6.573564E-01   6.227420E-01   5.953734E-01   5.769082E-01   5.628021E-01   5.532919E-01   5.453140E-01   5.379022E-01   5.296376E-01   5.200396E-01   5.084499E-01   4.947396E-01   4.777046E-01   4.564405E-01   4.305340E-01   4.017732E-01   3.703988E-01   3.396344E-01   3.120899E-01   2.896924E-01   2.751998E-01   2.677040E-01   2.655535E-01   2.628148E-01   2.591906E-01   2.611276E-01