# Name file for MODFLOW-2005, generated by Flopy version 3.3.0.
#xll:0.0; yll:0.0; rotation:0.0; units:meters; lenuni:2; start_datetime:1-1-1970
LIST               2  UMONS_SmallModel_SteadyState.list
DIS                9  UMONS_SmallModel_SteadyState.dis
CHOB               8  UMONS_SmallModel_SteadyState.chob
DATA             140  UMONS_SmallModel_SteadyState.obc
BAS6              10  UMONS_SmallModel_SteadyState.ba6
LPF               11  UMONS_SmallModel_SteadyState.lpf
OC                12  UMONS_SmallModel_SteadyState.oc
RCH               13  UMONS_SmallModel_SteadyState.rch
WEL               16  UMONS_SmallModel_SteadyState.wel
CHD               14  UMONS_SmallModel_SteadyState.chd
PCG               15  UMONS_SmallModel_SteadyState.pcg
DATA(BINARY)      40  UMONS_SmallModel_SteadyState.cbc REPLACE
DATA(BINARY)       3  UMONS_SmallModel_SteadyState.hds REPLACE
