# CHOB for MODFLOW, generated by Flopy.
         1       115         1       140
1.000000e+00
         1       115
no_chdf0           1               0          1
         1         8       222        nan
         1         9       222        nan
         1        10       222        nan
         1        11       222        nan
         1        12       222        nan
         1        15       221        nan
         1        16       221        nan
         1        17       221        nan
         1        18       221        nan
         1        19       221        nan
         1        24       220        nan
         1        25       220        nan
         1        26       220        nan
         1        27       220        nan
         1        28       220        nan
         1        29       220        nan
         1        37       219        nan
         1        38       219        nan
         1        39       219        nan
         1        40       219        nan
         1        41       218        nan
         1        42       218        nan
         1        43       218        nan
         1        46       217        nan
         1        47       217        nan
         1        48       217        nan
         1        50       218        nan
         1        51       218        nan
         1        56       219        nan
         1        57       219        nan
         1        58       219        nan
         1        64       218        nan
         1        65       218        nan
         1        66       218        nan
         1        67       218        nan
         1        69       217        nan
         1        70       217        nan
         1        72       216        nan
         1        73       216        nan
         1        78       215        nan
         1        79       215        nan
         1        80       215        nan
         1        81       215        nan
         1        84       214        nan
         1        85       214        nan
         1        86       214        nan
         1        87       214        nan
         1        90       213        nan
         1        91       213        nan
         1        92       213        nan
         1        93       213        nan
         1        96       212        nan
         1        97       212        nan
         1        98       212        nan
         1       101       211        nan
         1       102       211        nan
         1       104       210        nan
         1       105       210        nan
         1       107       209        nan
         1       108       209        nan
         1       109       209        nan
         1       111       208        nan
         1       112       208        nan
         1       113       208        nan
         1       115       207        nan
         1       116       207        nan
         1       117       207        nan
         1       120       206        nan
         1       122       205        nan
         1       123       205        nan
         1       124       205        nan
         1       131       204        nan
         1       132       204        nan
         1       133       204        nan
         1       134       204        nan
         1       135       204        nan
         1       136       204        nan
         1       137       204        nan
         1       141       203        nan
         1       142       203        nan
         1       143       203        nan
         1       148       202        nan
         1       149       202        nan
         1       150       202        nan
         1       151       202        nan
         1       152       202        nan
         1       153       202        nan
         1       164       201        nan
         1       165       201        nan
         1       166       201        nan
         1       167       201        nan
         1       168       201        nan
         1       169       201        nan
         1       173       200        nan
         1       174       200        nan
         1       175       200        nan
         1       179       199        nan
         1       180       199        nan
         1       181       199        nan
         1       182       199        nan
         1       189       198        nan
         1       190       198        nan
         1       191       198        nan
         1       192       198        nan
         1       193       198        nan
         1       194       198        nan
         1       198       197        nan
         1       199       197        nan
         1       200       197        nan
         1       203       197        nan
         1       204       197        nan
         1       205       197        nan
         1       206       197        nan
         1       207       197        nan
         1       208       197        nan
