# CHOB for MODFLOW, generated by Flopy.
         1       115       520       140
1.000000e+00
       520       115
no_chdf0           1           60480          1
no_chdf1           1          120960          1
no_chdf2           1          181440          1
no_chdf3           1          241920          1
no_chdf4           1          302400          1
no_chdf5           1          362880          1
no_chdf6           1          423360          1
no_chdf7           1          483840          1
no_chdf8           1          544320          1
no_chdf9           1          604800          1
no_chdf10          2           60480          1
no_chdf11          2          120960          1
no_chdf12          2          181440          1
no_chdf13          2          241920          1
no_chdf14          2          302400          1
no_chdf15          2          362880          1
no_chdf16          2          423360          1
no_chdf17          2          483840          1
no_chdf18          2          544320          1
no_chdf19          3               0          1
no_chdf20          3           60480          1
no_chdf21          3          120960          1
no_chdf22          3          181440          1
no_chdf23          3          241920          1
no_chdf24          3          302400          1
no_chdf25          3          362880          1
no_chdf26          3          423360          1
no_chdf27          3          483840          1
no_chdf28          3          544320          1
no_chdf29          4               0          1
no_chdf30          4           60480          1
no_chdf31          4          120960          1
no_chdf32          4          181440          1
no_chdf33          4          241920          1
no_chdf34          4          302400          1
no_chdf35          4          362880          1
no_chdf36          4          423360          1
no_chdf37          4          483840          1
no_chdf38          4          544320          1
no_chdf39          5               0          1
no_chdf40          5           60480          1
no_chdf41          5          120960          1
no_chdf42          5          181440          1
no_chdf43          5          241920          1
no_chdf44          5          302400          1
no_chdf45          5          362880          1
no_chdf46          5          423360          1
no_chdf47          5          483840          1
no_chdf48          5          544320          1
no_chdf49          6               0          1
no_chdf50          6           60480          1
no_chdf51          6          120960          1
no_chdf52          6          181440          1
no_chdf53          6          241920          1
no_chdf54          6          302400          1
no_chdf55          6          362880          1
no_chdf56          6          423360          1
no_chdf57          6          483840          1
no_chdf58          6          544320          1
no_chdf59          7               0          1
no_chdf60          7           60480          1
no_chdf61          7          120960          1
no_chdf62          7          181440          1
no_chdf63          7          241920          1
no_chdf64          7          302400          1
no_chdf65          7          362880          1
no_chdf66          7          423360          1
no_chdf67          7          483840          1
no_chdf68          7          544320          1
no_chdf69          8               0          1
no_chdf70          8           60480          1
no_chdf71          8          120960          1
no_chdf72          8          181440          1
no_chdf73          8          241920          1
no_chdf74          8          302400          1
no_chdf75          8          362880          1
no_chdf76          8          423360          1
no_chdf77          8          483840          1
no_chdf78          8          544320          1
no_chdf79          9               0          1
no_chdf80          9           60480          1
no_chdf81          9          120960          1
no_chdf82          9          181440          1
no_chdf83          9          241920          1
no_chdf84          9          302400          1
no_chdf85          9          362880          1
no_chdf86          9          423360          1
no_chdf87          9          483840          1
no_chdf88          9          544320          1
no_chdf89         10               0          1
no_chdf90         10           60480          1
no_chdf91         10          120960          1
no_chdf92         10          181440          1
no_chdf93         10          241920          1
no_chdf94         10          302400          1
no_chdf95         10          362880          1
no_chdf96         10          423360          1
no_chdf97         10          483840          1
no_chdf98         10          544320          1
no_chdf99         11               0          1
no_chdf100        11           60480          1
no_chdf101        11          120960          1
no_chdf102        11          181440          1
no_chdf103        11          241920          1
no_chdf104        11          302400          1
no_chdf105        11          362880          1
no_chdf106        11          423360          1
no_chdf107        11          483840          1
no_chdf108        11          544320          1
no_chdf109        12               0          1
no_chdf110        12           60480          1
no_chdf111        12          120960          1
no_chdf112        12          181440          1
no_chdf113        12          241920          1
no_chdf114        12          302400          1
no_chdf115        12          362880          1
no_chdf116        12          423360          1
no_chdf117        12          483840          1
no_chdf118        12          544320          1
no_chdf119        13               0          1
no_chdf120        13           60480          1
no_chdf121        13          120960          1
no_chdf122        13          181440          1
no_chdf123        13          241920          1
no_chdf124        13          302400          1
no_chdf125        13          362880          1
no_chdf126        13          423360          1
no_chdf127        13          483840          1
no_chdf128        13          544320          1
no_chdf129        14               0          1
no_chdf130        14           60480          1
no_chdf131        14          120960          1
no_chdf132        14          181440          1
no_chdf133        14          241920          1
no_chdf134        14          302400          1
no_chdf135        14          362880          1
no_chdf136        14          423360          1
no_chdf137        14          483840          1
no_chdf138        14          544320          1
no_chdf139        15               0          1
no_chdf140        15           60480          1
no_chdf141        15          120960          1
no_chdf142        15          181440          1
no_chdf143        15          241920          1
no_chdf144        15          302400          1
no_chdf145        15          362880          1
no_chdf146        15          423360          1
no_chdf147        15          483840          1
no_chdf148        15          544320          1
no_chdf149        16               0          1
no_chdf150        16           60480          1
no_chdf151        16          120960          1
no_chdf152        16          181440          1
no_chdf153        16          241920          1
no_chdf154        16          302400          1
no_chdf155        16          362880          1
no_chdf156        16          423360          1
no_chdf157        16          483840          1
no_chdf158        16          544320          1
no_chdf159        17               0          1
no_chdf160        17           60480          1
no_chdf161        17          120960          1
no_chdf162        17          181440          1
no_chdf163        17          241920          1
no_chdf164        17          302400          1
no_chdf165        17          362880          1
no_chdf166        17          423360          1
no_chdf167        17          483840          1
no_chdf168        17          544320          1
no_chdf169        18               0          1
no_chdf170        18           60480          1
no_chdf171        18          120960          1
no_chdf172        18          181440          1
no_chdf173        18          241920          1
no_chdf174        18          302400          1
no_chdf175        18          362880          1
no_chdf176        18          423360          1
no_chdf177        18          483840          1
no_chdf178        18          544320          1
no_chdf179        19               0          1
no_chdf180        19           60480          1
no_chdf181        19          120960          1
no_chdf182        19          181440          1
no_chdf183        19          241920          1
no_chdf184        19          302400          1
no_chdf185        19          362880          1
no_chdf186        19          423360          1
no_chdf187        19          483840          1
no_chdf188        19          544320          1
no_chdf189        20               0          1
no_chdf190        20           60480          1
no_chdf191        20          120960          1
no_chdf192        20          181440          1
no_chdf193        20          241920          1
no_chdf194        20          302400          1
no_chdf195        20          362880          1
no_chdf196        20          423360          1
no_chdf197        20          483840          1
no_chdf198        20          544320          1
no_chdf199        21               0          1
no_chdf200        21           60480          1
no_chdf201        21          120960          1
no_chdf202        21          181440          1
no_chdf203        21          241920          1
no_chdf204        21          302400          1
no_chdf205        21          362880          1
no_chdf206        21          423360          1
no_chdf207        21          483840          1
no_chdf208        21          544320          1
no_chdf209        22               0          1
no_chdf210        22           60480          1
no_chdf211        22          120960          1
no_chdf212        22          181440          1
no_chdf213        22          241920          1
no_chdf214        22          302400          1
no_chdf215        22          362880          1
no_chdf216        22          423360          1
no_chdf217        22          483840          1
no_chdf218        22          544320          1
no_chdf219        23               0          1
no_chdf220        23           60480          1
no_chdf221        23          120960          1
no_chdf222        23          181440          1
no_chdf223        23          241920          1
no_chdf224        23          302400          1
no_chdf225        23          362880          1
no_chdf226        23          423360          1
no_chdf227        23          483840          1
no_chdf228        23          544320          1
no_chdf229        24               0          1
no_chdf230        24           60480          1
no_chdf231        24          120960          1
no_chdf232        24          181440          1
no_chdf233        24          241920          1
no_chdf234        24          302400          1
no_chdf235        24          362880          1
no_chdf236        24          423360          1
no_chdf237        24          483840          1
no_chdf238        24          544320          1
no_chdf239        25               0          1
no_chdf240        25           60480          1
no_chdf241        25          120960          1
no_chdf242        25          181440          1
no_chdf243        25          241920          1
no_chdf244        25          302400          1
no_chdf245        25          362880          1
no_chdf246        25          423360          1
no_chdf247        25          483840          1
no_chdf248        25          544320          1
no_chdf249        26               0          1
no_chdf250        26           60480          1
no_chdf251        26          120960          1
no_chdf252        26          181440          1
no_chdf253        26          241920          1
no_chdf254        26          302400          1
no_chdf255        26          362880          1
no_chdf256        26          423360          1
no_chdf257        26          483840          1
no_chdf258        26          544320          1
no_chdf259        27               0          1
no_chdf260        27           60480          1
no_chdf261        27          120960          1
no_chdf262        27          181440          1
no_chdf263        27          241920          1
no_chdf264        27          302400          1
no_chdf265        27          362880          1
no_chdf266        27          423360          1
no_chdf267        27          483840          1
no_chdf268        27          544320          1
no_chdf269        28               0          1
no_chdf270        28           60480          1
no_chdf271        28          120960          1
no_chdf272        28          181440          1
no_chdf273        28          241920          1
no_chdf274        28          302400          1
no_chdf275        28          362880          1
no_chdf276        28          423360          1
no_chdf277        28          483840          1
no_chdf278        28          544320          1
no_chdf279        29               0          1
no_chdf280        29           60480          1
no_chdf281        29          120960          1
no_chdf282        29          181440          1
no_chdf283        29          241920          1
no_chdf284        29          302400          1
no_chdf285        29          362880          1
no_chdf286        29          423360          1
no_chdf287        29          483840          1
no_chdf288        29          544320          1
no_chdf289        30               0          1
no_chdf290        30           60480          1
no_chdf291        30          120960          1
no_chdf292        30          181440          1
no_chdf293        30          241920          1
no_chdf294        30          302400          1
no_chdf295        30          362880          1
no_chdf296        30          423360          1
no_chdf297        30          483840          1
no_chdf298        30          544320          1
no_chdf299        31               0          1
no_chdf300        31           60480          1
no_chdf301        31          120960          1
no_chdf302        31          181440          1
no_chdf303        31          241920          1
no_chdf304        31          302400          1
no_chdf305        31          362880          1
no_chdf306        31          423360          1
no_chdf307        31          483840          1
no_chdf308        31          544320          1
no_chdf309        32               0          1
no_chdf310        32           60480          1
no_chdf311        32          120960          1
no_chdf312        32          181440          1
no_chdf313        32          241920          1
no_chdf314        32          302400          1
no_chdf315        32          362880          1
no_chdf316        32          423360          1
no_chdf317        32          483840          1
no_chdf318        32          544320          1
no_chdf319        33               0          1
no_chdf320        33           60480          1
no_chdf321        33          120960          1
no_chdf322        33          181440          1
no_chdf323        33          241920          1
no_chdf324        33          302400          1
no_chdf325        33          362880          1
no_chdf326        33          423360          1
no_chdf327        33          483840          1
no_chdf328        33          544320          1
no_chdf329        34               0          1
no_chdf330        34           60480          1
no_chdf331        34          120960          1
no_chdf332        34          181440          1
no_chdf333        34          241920          1
no_chdf334        34          302400          1
no_chdf335        34          362880          1
no_chdf336        34          423360          1
no_chdf337        34          483840          1
no_chdf338        34          544320          1
no_chdf339        35               0          1
no_chdf340        35           60480          1
no_chdf341        35          120960          1
no_chdf342        35          181440          1
no_chdf343        35          241920          1
no_chdf344        35          302400          1
no_chdf345        35          362880          1
no_chdf346        35          423360          1
no_chdf347        35          483840          1
no_chdf348        35          544320          1
no_chdf349        36               0          1
no_chdf350        36           60480          1
no_chdf351        36          120960          1
no_chdf352        36          181440          1
no_chdf353        36          241920          1
no_chdf354        36          302400          1
no_chdf355        36          362880          1
no_chdf356        36          423360          1
no_chdf357        36          483840          1
no_chdf358        36          544320          1
no_chdf359        37               0          1
no_chdf360        37           60480          1
no_chdf361        37          120960          1
no_chdf362        37          181440          1
no_chdf363        37          241920          1
no_chdf364        37          302400          1
no_chdf365        37          362880          1
no_chdf366        37          423360          1
no_chdf367        37          483840          1
no_chdf368        37          544320          1
no_chdf369        38               0          1
no_chdf370        38           60480          1
no_chdf371        38          120960          1
no_chdf372        38          181440          1
no_chdf373        38          241920          1
no_chdf374        38          302400          1
no_chdf375        38          362880          1
no_chdf376        38          423360          1
no_chdf377        38          483840          1
no_chdf378        38          544320          1
no_chdf379        39               0          1
no_chdf380        39           60480          1
no_chdf381        39          120960          1
no_chdf382        39          181440          1
no_chdf383        39          241920          1
no_chdf384        39          302400          1
no_chdf385        39          362880          1
no_chdf386        39          423360          1
no_chdf387        39          483840          1
no_chdf388        39          544320          1
no_chdf389        40               0          1
no_chdf390        40           60480          1
no_chdf391        40          120960          1
no_chdf392        40          181440          1
no_chdf393        40          241920          1
no_chdf394        40          302400          1
no_chdf395        40          362880          1
no_chdf396        40          423360          1
no_chdf397        40          483840          1
no_chdf398        40          544320          1
no_chdf399        41               0          1
no_chdf400        41           60480          1
no_chdf401        41          120960          1
no_chdf402        41          181440          1
no_chdf403        41          241920          1
no_chdf404        41          302400          1
no_chdf405        41          362880          1
no_chdf406        41          423360          1
no_chdf407        41          483840          1
no_chdf408        41          544320          1
no_chdf409        42               0          1
no_chdf410        42           60480          1
no_chdf411        42          120960          1
no_chdf412        42          181440          1
no_chdf413        42          241920          1
no_chdf414        42          302400          1
no_chdf415        42          362880          1
no_chdf416        42          423360          1
no_chdf417        42          483840          1
no_chdf418        42          544320          1
no_chdf419        43               0          1
no_chdf420        43           60480          1
no_chdf421        43          120960          1
no_chdf422        43          181440          1
no_chdf423        43          241920          1
no_chdf424        43          302400          1
no_chdf425        43          362880          1
no_chdf426        43          423360          1
no_chdf427        43          483840          1
no_chdf428        43          544320          1
no_chdf429        44               0          1
no_chdf430        44           60480          1
no_chdf431        44          120960          1
no_chdf432        44          181440          1
no_chdf433        44          241920          1
no_chdf434        44          302400          1
no_chdf435        44          362880          1
no_chdf436        44          423360          1
no_chdf437        44          483840          1
no_chdf438        44          544320          1
no_chdf439        45               0          1
no_chdf440        45           60480          1
no_chdf441        45          120960          1
no_chdf442        45          181440          1
no_chdf443        45          241920          1
no_chdf444        45          302400          1
no_chdf445        45          362880          1
no_chdf446        45          423360          1
no_chdf447        45          483840          1
no_chdf448        45          544320          1
no_chdf449        46               0          1
no_chdf450        46           60480          1
no_chdf451        46          120960          1
no_chdf452        46          181440          1
no_chdf453        46          241920          1
no_chdf454        46          302400          1
no_chdf455        46          362880          1
no_chdf456        46          423360          1
no_chdf457        46          483840          1
no_chdf458        46          544320          1
no_chdf459        47               0          1
no_chdf460        47           60480          1
no_chdf461        47          120960          1
no_chdf462        47          181440          1
no_chdf463        47          241920          1
no_chdf464        47          302400          1
no_chdf465        47          362880          1
no_chdf466        47          423360          1
no_chdf467        47          483840          1
no_chdf468        47          544320          1
no_chdf469        48               0          1
no_chdf470        48           60480          1
no_chdf471        48          120960          1
no_chdf472        48          181440          1
no_chdf473        48          241920          1
no_chdf474        48          302400          1
no_chdf475        48          362880          1
no_chdf476        48          423360          1
no_chdf477        48          483840          1
no_chdf478        48          544320          1
no_chdf479        49               0          1
no_chdf480        49           60480          1
no_chdf481        49          120960          1
no_chdf482        49          181440          1
no_chdf483        49          241920          1
no_chdf484        49          302400          1
no_chdf485        49          362880          1
no_chdf486        49          423360          1
no_chdf487        49          483840          1
no_chdf488        49          544320          1
no_chdf489        50               0          1
no_chdf490        50           60480          1
no_chdf491        50          120960          1
no_chdf492        50          181440          1
no_chdf493        50          241920          1
no_chdf494        50          302400          1
no_chdf495        50          362880          1
no_chdf496        50          423360          1
no_chdf497        50          483840          1
no_chdf498        50          544320          1
no_chdf499        51               0          1
no_chdf500        51           60480          1
no_chdf501        51          120960          1
no_chdf502        51          181440          1
no_chdf503        51          241920          1
no_chdf504        51          302400          1
no_chdf505        51          362880          1
no_chdf506        51          423360          1
no_chdf507        51          483840          1
no_chdf508        51          544320          1
no_chdf509        52               0          1
no_chdf510        52           60480          1
no_chdf511        52          120960          1
no_chdf512        52          181440          1
no_chdf513        52          241920          1
no_chdf514        52          302400          1
no_chdf515        52          362880          1
no_chdf516        52          423360          1
no_chdf517        52          483840          1
no_chdf518        52          544320          1
no_chdf519        52          604800          1
         1         8       222        nan
         1         9       222        nan
         1        10       222        nan
         1        11       222        nan
         1        12       222        nan
         1        15       221        nan
         1        16       221        nan
         1        17       221        nan
         1        18       221        nan
         1        19       221        nan
         1        24       220        nan
         1        25       220        nan
         1        26       220        nan
         1        27       220        nan
         1        28       220        nan
         1        29       220        nan
         1        37       219        nan
         1        38       219        nan
         1        39       219        nan
         1        40       219        nan
         1        41       218        nan
         1        42       218        nan
         1        43       218        nan
         1        46       217        nan
         1        47       217        nan
         1        48       217        nan
         1        50       218        nan
         1        51       218        nan
         1        56       219        nan
         1        57       219        nan
         1        58       219        nan
         1        64       218        nan
         1        65       218        nan
         1        66       218        nan
         1        67       218        nan
         1        69       217        nan
         1        70       217        nan
         1        72       216        nan
         1        73       216        nan
         1        78       215        nan
         1        79       215        nan
         1        80       215        nan
         1        81       215        nan
         1        84       214        nan
         1        85       214        nan
         1        86       214        nan
         1        87       214        nan
         1        90       213        nan
         1        91       213        nan
         1        92       213        nan
         1        93       213        nan
         1        96       212        nan
         1        97       212        nan
         1        98       212        nan
         1       101       211        nan
         1       102       211        nan
         1       104       210        nan
         1       105       210        nan
         1       107       209        nan
         1       108       209        nan
         1       109       209        nan
         1       111       208        nan
         1       112       208        nan
         1       113       208        nan
         1       115       207        nan
         1       116       207        nan
         1       117       207        nan
         1       120       206        nan
         1       122       205        nan
         1       123       205        nan
         1       124       205        nan
         1       131       204        nan
         1       132       204        nan
         1       133       204        nan
         1       134       204        nan
         1       135       204        nan
         1       136       204        nan
         1       137       204        nan
         1       141       203        nan
         1       142       203        nan
         1       143       203        nan
         1       148       202        nan
         1       149       202        nan
         1       150       202        nan
         1       151       202        nan
         1       152       202        nan
         1       153       202        nan
         1       164       201        nan
         1       165       201        nan
         1       166       201        nan
         1       167       201        nan
         1       168       201        nan
         1       169       201        nan
         1       173       200        nan
         1       174       200        nan
         1       175       200        nan
         1       179       199        nan
         1       180       199        nan
         1       181       199        nan
         1       182       199        nan
         1       189       198        nan
         1       190       198        nan
         1       191       198        nan
         1       192       198        nan
         1       193       198        nan
         1       194       198        nan
         1       198       197        nan
         1       199       197        nan
         1       200       197        nan
         1       203       197        nan
         1       204       197        nan
         1       205       197        nan
         1       206       197        nan
         1       207       197        nan
         1       208       197        nan
