# CHD package for  MODFLOW-2005, generated by Flopy.
       115
       115         0 # stress period 1
         1         8       222             0.0             0.0
         1         9       222             0.0             0.0
         1        10       222             0.0             0.0
         1        11       222             0.0             0.0
         1        12       222             0.0             0.0
         1        15       221             0.0             0.0
         1        16       221             0.0             0.0
         1        17       221             0.0             0.0
         1        18       221             0.0             0.0
         1        19       221             0.0             0.0
         1        24       220             0.0             0.0
         1        25       220             0.0             0.0
         1        26       220             0.0             0.0
         1        27       220             0.0             0.0
         1        28       220             0.0             0.0
         1        29       220             0.0             0.0
         1        37       219             0.0             0.0
         1        38       219             0.0             0.0
         1        39       219             0.0             0.0
         1        40       219             0.0             0.0
         1        41       218             0.0             0.0
         1        42       218             0.0             0.0
         1        43       218             0.0             0.0
         1        46       217             0.0             0.0
         1        47       217             0.0             0.0
         1        48       217             0.0             0.0
         1        50       218             0.0             0.0
         1        51       218             0.0             0.0
         1        56       219             0.0             0.0
         1        57       219             0.0             0.0
         1        58       219             0.0             0.0
         1        64       218             0.0             0.0
         1        65       218             0.0             0.0
         1        66       218             0.0             0.0
         1        67       218             0.0             0.0
         1        69       217             0.0             0.0
         1        70       217             0.0             0.0
         1        72       216             0.0             0.0
         1        73       216             0.0             0.0
         1        78       215             0.0             0.0
         1        79       215             0.0             0.0
         1        80       215             0.0             0.0
         1        81       215             0.0             0.0
         1        84       214             0.0             0.0
         1        85       214             0.0             0.0
         1        86       214             0.0             0.0
         1        87       214             0.0             0.0
         1        90       213             0.0             0.0
         1        91       213             0.0             0.0
         1        92       213             0.0             0.0
         1        93       213             0.0             0.0
         1        96       212             0.0             0.0
         1        97       212             0.0             0.0
         1        98       212             0.0             0.0
         1       101       211             0.0             0.0
         1       102       211             0.0             0.0
         1       104       210             0.0             0.0
         1       105       210             0.0             0.0
         1       107       209             0.0             0.0
         1       108       209             0.0             0.0
         1       109       209             0.0             0.0
         1       111       208             0.0             0.0
         1       112       208             0.0             0.0
         1       113       208             0.0             0.0
         1       115       207             0.0             0.0
         1       116       207             0.0             0.0
         1       117       207             0.0             0.0
         1       120       206             0.0             0.0
         1       122       205             0.0             0.0
         1       123       205             0.0             0.0
         1       124       205             0.0             0.0
         1       131       204             0.0             0.0
         1       132       204             0.0             0.0
         1       133       204             0.0             0.0
         1       134       204             0.0             0.0
         1       135       204             0.0             0.0
         1       136       204             0.0             0.0
         1       137       204             0.0             0.0
         1       141       203             0.0             0.0
         1       142       203             0.0             0.0
         1       143       203             0.0             0.0
         1       148       202             0.0             0.0
         1       149       202             0.0             0.0
         1       150       202             0.0             0.0
         1       151       202             0.0             0.0
         1       152       202             0.0             0.0
         1       153       202             0.0             0.0
         1       164       201             0.0             0.0
         1       165       201             0.0             0.0
         1       166       201             0.0             0.0
         1       167       201             0.0             0.0
         1       168       201             0.0             0.0
         1       169       201             0.0             0.0
         1       173       200             0.0             0.0
         1       174       200             0.0             0.0
         1       175       200             0.0             0.0
         1       179       199             0.0             0.0
         1       180       199             0.0             0.0
         1       181       199             0.0             0.0
         1       182       199             0.0             0.0
         1       189       198             0.0             0.0
         1       190       198             0.0             0.0
         1       191       198             0.0             0.0
         1       192       198             0.0             0.0
         1       193       198             0.0             0.0
         1       194       198             0.0             0.0
         1       198       197             0.0             0.0
         1       199       197             0.0             0.0
         1       200       197             0.0             0.0
         1       203       197             0.0             0.0
         1       204       197             0.0             0.0
         1       205       197             0.0             0.0
         1       206       197             0.0             0.0
         1       207       197             0.0             0.0
         1       208       197             0.0             0.0
       115         0 # stress period 2
         1         8       222             0.0             0.0
         1         9       222             0.0             0.0
         1        10       222             0.0             0.0
         1        11       222             0.0             0.0
         1        12       222             0.0             0.0
         1        15       221             0.0             0.0
         1        16       221             0.0             0.0
         1        17       221             0.0             0.0
         1        18       221             0.0             0.0
         1        19       221             0.0             0.0
         1        24       220             0.0             0.0
         1        25       220             0.0             0.0
         1        26       220             0.0             0.0
         1        27       220             0.0             0.0
         1        28       220             0.0             0.0
         1        29       220             0.0             0.0
         1        37       219             0.0             0.0
         1        38       219             0.0             0.0
         1        39       219             0.0             0.0
         1        40       219             0.0             0.0
         1        41       218             0.0             0.0
         1        42       218             0.0             0.0
         1        43       218             0.0             0.0
         1        46       217             0.0             0.0
         1        47       217             0.0             0.0
         1        48       217             0.0             0.0
         1        50       218             0.0             0.0
         1        51       218             0.0             0.0
         1        56       219             0.0             0.0
         1        57       219             0.0             0.0
         1        58       219             0.0             0.0
         1        64       218             0.0             0.0
         1        65       218             0.0             0.0
         1        66       218             0.0             0.0
         1        67       218             0.0             0.0
         1        69       217             0.0             0.0
         1        70       217             0.0             0.0
         1        72       216             0.0             0.0
         1        73       216             0.0             0.0
         1        78       215             0.0             0.0
         1        79       215             0.0             0.0
         1        80       215             0.0             0.0
         1        81       215             0.0             0.0
         1        84       214             0.0             0.0
         1        85       214             0.0             0.0
         1        86       214             0.0             0.0
         1        87       214             0.0             0.0
         1        90       213             0.0             0.0
         1        91       213             0.0             0.0
         1        92       213             0.0             0.0
         1        93       213             0.0             0.0
         1        96       212             0.0             0.0
         1        97       212             0.0             0.0
         1        98       212             0.0             0.0
         1       101       211             0.0             0.0
         1       102       211             0.0             0.0
         1       104       210             0.0             0.0
         1       105       210             0.0             0.0
         1       107       209             0.0             0.0
         1       108       209             0.0             0.0
         1       109       209             0.0             0.0
         1       111       208             0.0             0.0
         1       112       208             0.0             0.0
         1       113       208             0.0             0.0
         1       115       207             0.0             0.0
         1       116       207             0.0             0.0
         1       117       207             0.0             0.0
         1       120       206             0.0             0.0
         1       122       205             0.0             0.0
         1       123       205             0.0             0.0
         1       124       205             0.0             0.0
         1       131       204             0.0             0.0
         1       132       204             0.0             0.0
         1       133       204             0.0             0.0
         1       134       204             0.0             0.0
         1       135       204             0.0             0.0
         1       136       204             0.0             0.0
         1       137       204             0.0             0.0
         1       141       203             0.0             0.0
         1       142       203             0.0             0.0
         1       143       203             0.0             0.0
         1       148       202             0.0             0.0
         1       149       202             0.0             0.0
         1       150       202             0.0             0.0
         1       151       202             0.0             0.0
         1       152       202             0.0             0.0
         1       153       202             0.0             0.0
         1       164       201             0.0             0.0
         1       165       201             0.0             0.0
         1       166       201             0.0             0.0
         1       167       201             0.0             0.0
         1       168       201             0.0             0.0
         1       169       201             0.0             0.0
         1       173       200             0.0             0.0
         1       174       200             0.0             0.0
         1       175       200             0.0             0.0
         1       179       199             0.0             0.0
         1       180       199             0.0             0.0
         1       181       199             0.0             0.0
         1       182       199             0.0             0.0
         1       189       198             0.0             0.0
         1       190       198             0.0             0.0
         1       191       198             0.0             0.0
         1       192       198             0.0             0.0
         1       193       198             0.0             0.0
         1       194       198             0.0             0.0
         1       198       197             0.0             0.0
         1       199       197             0.0             0.0
         1       200       197             0.0             0.0
         1       203       197             0.0             0.0
         1       204       197             0.0             0.0
         1       205       197             0.0             0.0
         1       206       197             0.0             0.0
         1       207       197             0.0             0.0
         1       208       197             0.0             0.0
       115         0 # stress period 3
         1         8       222             0.0             0.0
         1         9       222             0.0             0.0
         1        10       222             0.0             0.0
         1        11       222             0.0             0.0
         1        12       222             0.0             0.0
         1        15       221             0.0             0.0
         1        16       221             0.0             0.0
         1        17       221             0.0             0.0
         1        18       221             0.0             0.0
         1        19       221             0.0             0.0
         1        24       220             0.0             0.0
         1        25       220             0.0             0.0
         1        26       220             0.0             0.0
         1        27       220             0.0             0.0
         1        28       220             0.0             0.0
         1        29       220             0.0             0.0
         1        37       219             0.0             0.0
         1        38       219             0.0             0.0
         1        39       219             0.0             0.0
         1        40       219             0.0             0.0
         1        41       218             0.0             0.0
         1        42       218             0.0             0.0
         1        43       218             0.0             0.0
         1        46       217             0.0             0.0
         1        47       217             0.0             0.0
         1        48       217             0.0             0.0
         1        50       218             0.0             0.0
         1        51       218             0.0             0.0
         1        56       219             0.0             0.0
         1        57       219             0.0             0.0
         1        58       219             0.0             0.0
         1        64       218             0.0             0.0
         1        65       218             0.0             0.0
         1        66       218             0.0             0.0
         1        67       218             0.0             0.0
         1        69       217             0.0             0.0
         1        70       217             0.0             0.0
         1        72       216             0.0             0.0
         1        73       216             0.0             0.0
         1        78       215             0.0             0.0
         1        79       215             0.0             0.0
         1        80       215             0.0             0.0
         1        81       215             0.0             0.0
         1        84       214             0.0             0.0
         1        85       214             0.0             0.0
         1        86       214             0.0             0.0
         1        87       214             0.0             0.0
         1        90       213             0.0             0.0
         1        91       213             0.0             0.0
         1        92       213             0.0             0.0
         1        93       213             0.0             0.0
         1        96       212             0.0             0.0
         1        97       212             0.0             0.0
         1        98       212             0.0             0.0
         1       101       211             0.0             0.0
         1       102       211             0.0             0.0
         1       104       210             0.0             0.0
         1       105       210             0.0             0.0
         1       107       209             0.0             0.0
         1       108       209             0.0             0.0
         1       109       209             0.0             0.0
         1       111       208             0.0             0.0
         1       112       208             0.0             0.0
         1       113       208             0.0             0.0
         1       115       207             0.0             0.0
         1       116       207             0.0             0.0
         1       117       207             0.0             0.0
         1       120       206             0.0             0.0
         1       122       205             0.0             0.0
         1       123       205             0.0             0.0
         1       124       205             0.0             0.0
         1       131       204             0.0             0.0
         1       132       204             0.0             0.0
         1       133       204             0.0             0.0
         1       134       204             0.0             0.0
         1       135       204             0.0             0.0
         1       136       204             0.0             0.0
         1       137       204             0.0             0.0
         1       141       203             0.0             0.0
         1       142       203             0.0             0.0
         1       143       203             0.0             0.0
         1       148       202             0.0             0.0
         1       149       202             0.0             0.0
         1       150       202             0.0             0.0
         1       151       202             0.0             0.0
         1       152       202             0.0             0.0
         1       153       202             0.0             0.0
         1       164       201             0.0             0.0
         1       165       201             0.0             0.0
         1       166       201             0.0             0.0
         1       167       201             0.0             0.0
         1       168       201             0.0             0.0
         1       169       201             0.0             0.0
         1       173       200             0.0             0.0
         1       174       200             0.0             0.0
         1       175       200             0.0             0.0
         1       179       199             0.0             0.0
         1       180       199             0.0             0.0
         1       181       199             0.0             0.0
         1       182       199             0.0             0.0
         1       189       198             0.0             0.0
         1       190       198             0.0             0.0
         1       191       198             0.0             0.0
         1       192       198             0.0             0.0
         1       193       198             0.0             0.0
         1       194       198             0.0             0.0
         1       198       197             0.0             0.0
         1       199       197             0.0             0.0
         1       200       197             0.0             0.0
         1       203       197             0.0             0.0
         1       204       197             0.0             0.0
         1       205       197             0.0             0.0
         1       206       197             0.0             0.0
         1       207       197             0.0             0.0
         1       208       197             0.0             0.0
       115         0 # stress period 4
         1         8       222             0.0             0.0
         1         9       222             0.0             0.0
         1        10       222             0.0             0.0
         1        11       222             0.0             0.0
         1        12       222             0.0             0.0
         1        15       221             0.0             0.0
         1        16       221             0.0             0.0
         1        17       221             0.0             0.0
         1        18       221             0.0             0.0
         1        19       221             0.0             0.0
         1        24       220             0.0             0.0
         1        25       220             0.0             0.0
         1        26       220             0.0             0.0
         1        27       220             0.0             0.0
         1        28       220             0.0             0.0
         1        29       220             0.0             0.0
         1        37       219             0.0             0.0
         1        38       219             0.0             0.0
         1        39       219             0.0             0.0
         1        40       219             0.0             0.0
         1        41       218             0.0             0.0
         1        42       218             0.0             0.0
         1        43       218             0.0             0.0
         1        46       217             0.0             0.0
         1        47       217             0.0             0.0
         1        48       217             0.0             0.0
         1        50       218             0.0             0.0
         1        51       218             0.0             0.0
         1        56       219             0.0             0.0
         1        57       219             0.0             0.0
         1        58       219             0.0             0.0
         1        64       218             0.0             0.0
         1        65       218             0.0             0.0
         1        66       218             0.0             0.0
         1        67       218             0.0             0.0
         1        69       217             0.0             0.0
         1        70       217             0.0             0.0
         1        72       216             0.0             0.0
         1        73       216             0.0             0.0
         1        78       215             0.0             0.0
         1        79       215             0.0             0.0
         1        80       215             0.0             0.0
         1        81       215             0.0             0.0
         1        84       214             0.0             0.0
         1        85       214             0.0             0.0
         1        86       214             0.0             0.0
         1        87       214             0.0             0.0
         1        90       213             0.0             0.0
         1        91       213             0.0             0.0
         1        92       213             0.0             0.0
         1        93       213             0.0             0.0
         1        96       212             0.0             0.0
         1        97       212             0.0             0.0
         1        98       212             0.0             0.0
         1       101       211             0.0             0.0
         1       102       211             0.0             0.0
         1       104       210             0.0             0.0
         1       105       210             0.0             0.0
         1       107       209             0.0             0.0
         1       108       209             0.0             0.0
         1       109       209             0.0             0.0
         1       111       208             0.0             0.0
         1       112       208             0.0             0.0
         1       113       208             0.0             0.0
         1       115       207             0.0             0.0
         1       116       207             0.0             0.0
         1       117       207             0.0             0.0
         1       120       206             0.0             0.0
         1       122       205             0.0             0.0
         1       123       205             0.0             0.0
         1       124       205             0.0             0.0
         1       131       204             0.0             0.0
         1       132       204             0.0             0.0
         1       133       204             0.0             0.0
         1       134       204             0.0             0.0
         1       135       204             0.0             0.0
         1       136       204             0.0             0.0
         1       137       204             0.0             0.0
         1       141       203             0.0             0.0
         1       142       203             0.0             0.0
         1       143       203             0.0             0.0
         1       148       202             0.0             0.0
         1       149       202             0.0             0.0
         1       150       202             0.0             0.0
         1       151       202             0.0             0.0
         1       152       202             0.0             0.0
         1       153       202             0.0             0.0
         1       164       201             0.0             0.0
         1       165       201             0.0             0.0
         1       166       201             0.0             0.0
         1       167       201             0.0             0.0
         1       168       201             0.0             0.0
         1       169       201             0.0             0.0
         1       173       200             0.0             0.0
         1       174       200             0.0             0.0
         1       175       200             0.0             0.0
         1       179       199             0.0             0.0
         1       180       199             0.0             0.0
         1       181       199             0.0             0.0
         1       182       199             0.0             0.0
         1       189       198             0.0             0.0
         1       190       198             0.0             0.0
         1       191       198             0.0             0.0
         1       192       198             0.0             0.0
         1       193       198             0.0             0.0
         1       194       198             0.0             0.0
         1       198       197             0.0             0.0
         1       199       197             0.0             0.0
         1       200       197             0.0             0.0
         1       203       197             0.0             0.0
         1       204       197             0.0             0.0
         1       205       197             0.0             0.0
         1       206       197             0.0             0.0
         1       207       197             0.0             0.0
         1       208       197             0.0             0.0
       115         0 # stress period 5
         1         8       222             0.0             0.0
         1         9       222             0.0             0.0
         1        10       222             0.0             0.0
         1        11       222             0.0             0.0
         1        12       222             0.0             0.0
         1        15       221             0.0             0.0
         1        16       221             0.0             0.0
         1        17       221             0.0             0.0
         1        18       221             0.0             0.0
         1        19       221             0.0             0.0
         1        24       220             0.0             0.0
         1        25       220             0.0             0.0