# Name file for MODFLOW-2005, generated by Flopy version 3.3.0.
#xll:0.0; yll:0.0; rotation:0.0; units:meters; lenuni:2; start_datetime:1-1-1970
LIST               2  UMONS_SmallModel_SteadyState_mf2005.list
DIS                9  UMONS_SmallModel_SteadyState_mf2005.dis
BAS6              10  UMONS_SmallModel_SteadyState_mf2005.ba6
LPF               11  UMONS_SmallModel_SteadyState_mf2005.lpf
OC                12  UMONS_SmallModel_SteadyState_mf2005.oc
RCH               13  UMONS_SmallModel_SteadyState_mf2005.rch
WEL               16  UMONS_SmallModel_SteadyState_mf2005.wel
CHD               14  UMONS_SmallModel_SteadyState_mf2005.chd
PCG               15  UMONS_SmallModel_SteadyState_mf2005.pcg
DATA(BINARY)      40  UMONS_SmallModel_SteadyState_mf2005.cbc REPLACE
DATA(BINARY)       3  UMONS_SmallModel_SteadyState_mf2005.hds REPLACE
